# bitcoin dns seeds and whois results
IP Address|ASN|BGP Prefix|CC|Registry|Allocated|AS Name
103.99.168.130|54415|103.99.168.0/24|JP|apnic|2017-08-28|WIZ-JP-AS-AP WIZ K.K., JP
110.92.64.163|133115|110.92.64.0/24|HK|apnic|2015-11-19|HKKFGL-AS-AP HK Kwaifong Group Limited, HK
128.199.98.15|14061|128.199.64.0/18|GB|ripencc|1999-04-12|DIGITALOCEAN-ASN, US
142.126.245.13|577|142.126.0.0/16|CA|arin|1993-04-05|BACOM, CA
143.110.178.161|14061|143.110.176.0/20|US|arin|2020-01-17|DIGITALOCEAN-ASN, US
15.161.90.31|16509|15.161.0.0/16|US|arin|2019-12-26|AMAZON-02, US
151.106.34.139|34088|151.106.32.0/20|DE|ripencc|1991-05-30|GDY-FRANCE, DE
155.254.132.247|394660|155.254.132.0/24|US|arin|2015-04-13|CHOICETEL-ER, US
162.255.137.142|47869|162.255.136.0/22|US|arin|2014-05-15|NETROUTING-AS, NL
172.105.21.216|63949|172.105.0.0/19|US|arin|2015-06-19|LINODE-AP Linode, LLC, US
173.249.0.235|51167|173.249.0.0/23|DE|ripencc|2010-05-26|CONTABO, DE
177.52.173.62|263319|177.52.173.0/24|BR|lacnic|2014-03-06|JCR COMERCIO E SERVICOS DE TELECOMUNICACOES LTDA, BR
178.79.83.93|3212|178.79.64.0/18|SI|ripencc|2010-05-07|TELEMACH Broadband Access & Carrier Services, SI
181.239.208.122|11664|181.239.208.0/21|AR|lacnic|2012-11-29|Techtel LMDS Comunicaciones Interactivas S.A., AR
181.45.71.86|27747|181.45.64.0/20|AR|lacnic|2013-12-16|Telecentro S.A., AR
185.254.97.164|60548|185.254.96.0/22|DE|ripencc|2018-04-10|AVORO Avoro, DE
185.8.172.118|60631|185.8.172.0/24|IR|ripencc|2012-11-01|PARVASYSTEM, IR
192.42.253.213|60251|192.42.253.0/24|CH|ripencc|2019-11-12|CALYPSO-IT, CH
195.135.194.8|39149|195.135.194.0/24|RO|ripencc|2009-01-14|STS International SRL, RO
2.225.249.9|12874|2.224.0.0/13|IT|ripencc|2010-12-30|FASTWEB, IT
23.108.102.27|59253|23.108.96.0/21|SG|apnic|2013-07-24|LEASEWEB-APAC-SIN-11 Leaseweb Asia Pacific pte. ltd., SG
31.210.218.189|43727|31.210.218.0/24|RU|ripencc|2011-05-05|KVANT-TELECOM, RU
34.75.54.59|15169|34.72.0.0/14|US|arin|2018-09-28|GOOGLE, US
34.84.70.7|15169|34.84.0.0/14|US|arin|2018-09-28|GOOGLE, US
35.236.139.60|15169|35.236.0.0/14|US|arin|2017-09-29|GOOGLE, US
37.187.22.60|16276|37.187.0.0/16|FR|ripencc|2012-03-20|OVH, FR
37.187.5.202|16276|37.187.0.0/16|FR|ripencc|2012-03-20|OVH, FR
39.101.136.226|37963|39.100.0.0/14|CN|apnic|2011-04-05|CNNIC-ALIBABA-CN-NET-AP Hangzhou Alibaba Advertising Co.,Ltd., CN
45.16.126.242|7018|45.16.0.0/12|US|arin|2014-12-11|ATT-INTERNET4, US
46.4.49.216|24940|46.4.0.0/16|DE|ripencc|2010-08-19|HETZNER-AS, DE
51.79.60.149|16276|51.79.0.0/17|CA|arin|2019-01-10|OVH, FR
66.29.128.23|22612|66.29.128.0/24|US|arin|2021-03-05|NAMECHEAP-NET, US
74.208.220.181|8560|74.208.0.0/16|US|arin|2006-11-22|IONOS-AS This is the joint network for IONOS, Fasthosts, Arsys, 1&1 Mail and Media and 1&1 Telecom. Formerly known as 1&1 Internet SE., DE
80.241.217.54|51167|80.241.216.0/23|DE|ripencc|2011-02-14|CONTABO, DE
85.208.71.25|42275|85.208.71.0/24|FR|ripencc|2019-02-21|THREEFOURTEEN, FR
85.70.97.59|5610|85.70.0.0/17|CZ|ripencc|2004-11-02|O2-CZECH-REPUBLIC, CZ
87.246.46.132|43561|87.246.46.0/23|BG|ripencc|2005-08-25|NET1-AS, BG
88.214.57.95|30823|88.214.57.0/24|DE|ripencc|2018-11-20|COMBAHTON combahton GmbH, DE
88.82.181.44|39178|88.82.180.0/22|RU|ripencc|2005-12-22|OPTILINK-AS, RU
89.230.96.42|21021|89.230.0.0/16|PL|ripencc|2006-04-21|MULTIMEDIA-AS Cable DTV Internet Voice Provider in Poland., PL
91.193.237.116|42916|91.193.236.0/23|RU|ripencc|2007-05-09|IT-AS, RU
94.140.123.164|43513|94.140.123.0/24|LV|ripencc|2008-12-03|NANO-AS, LV
94.228.91.157|48133|94.228.88.0/22|SK|ripencc|2008-10-15|E-NET-SK-AS, SK
95.142.173.153|203476|95.142.160.0/20|FR|ripencc|2009-08-04|GANDI-AS-2 Domain name registrar - http://www.gandi.net, FR
95.69.249.63|20850|95.69.248.0/22|UA|ripencc|2008-11-19|VALORKIEV-AS Kharkov, Ukraine, UA
98.17.20.170|7029|98.16.0.0/13|US|arin|2007-02-05|WINDSTREAM, US
