# bitcoin dns seeds and whois results
IP Address|ASN|BGP Prefix|CC|Registry|Allocated|AS Name
109.248.206.13|203493|109.248.206.0/23|CZ|ripencc|2009-11-27|YACOLO-AS, RU
129.192.83.191|29518|129.192.80.0/22|US|arin|1994-11-15|BREDBAND2, SE
13.209.81.230|16509|13.209.0.0/16|US|arin|2019-10-01|AMAZON-02, US
131.147.86.142|2527|131.147.0.0/16|JP|apnic|1988-11-23|SO-NET Sony Network Communications Inc., JP
151.248.220.127|8821|151.248.128.0/17|CH|ripencc|2012-08-17|TELEZUG WWZ Telekom AG (TELEZUG), CH
167.114.104.221|16276|167.114.0.0/17|CA|arin|2014-08-29|OVH, FR
168.119.169.2|24940|168.119.0.0/16|DE|ripencc|1994-04-05|HETZNER-AS, DE
172.104.173.214|63949|172.104.160.0/19|US|arin|2015-06-19|LINODE-AP Linode, LLC, US
174.137.23.75|31875|174.137.16.0/20|US|arin|2017-12-14|JACKSON-CO-REMC, US
176.74.136.237|35613|176.74.128.0/19|CZ|ripencc|2011-06-15|NETDATACOMM, CZ
177.38.215.73|262411|177.38.215.0/24|BR|lacnic|2011-11-16|Force Telecom Ltda, BR
178.255.42.126|197155|178.255.42.0/24|PL|ripencc|2010-07-01|ARTNET, PL
178.76.234.182|15774|178.76.234.0/24|RU|ripencc|2010-04-08|TTK-RTL Retail, RU
178.79.83.93|3212|178.79.64.0/18|SI|ripencc|2010-05-07|TELEMACH Broadband Access & Carrier Services, SI
185.174.171.152|206468|185.174.171.0/24|CZ|ripencc|2016-10-25|TREBORADICENET-AS, CZ
185.25.48.148|61272|185.25.48.0/22|LT|ripencc|2013-04-29|IST-AS, LT
185.53.88.6|213371|185.53.88.0/24|BZ|ripencc|2014-04-08|SQUITTER-NETWORKS, NL
188.166.122.56|14061|188.166.64.0/18|US|ripencc|2009-06-05|DIGITALOCEAN-ASN, US
198.245.61.120|16276|198.245.48.0/20|CA|arin|2012-04-16|OVH, FR
198.255.92.170|174|198.255.92.0/23|US|arin|2013-07-09|COGENT-174, US
216.146.251.8|394778|216.146.250.0/23|US|arin|2003-01-17|NEMR, US
216.249.197.4|13576|216.249.197.0/24|US|arin|2007-05-07|SDNW-13576, US
217.84.176.18|3320|217.80.0.0/12|DE|ripencc|2000-10-26|DTAG Internet service provider operations, DE
34.101.132.198|139190|34.101.0.0/16|US|arin|2018-09-28|GOOGLE-AS-AP Google Asia Pacific Pte. Ltd., SG
34.64.123.98|139070|34.64.0.0/16|US|arin|2018-09-28|GOOGLE-AS-AP Google Asia Pacific Pte. Ltd., SG
35.240.252.177|15169|35.240.0.0/14|US|arin|2017-09-29|GOOGLE, US
47.115.53.163|37963|47.115.0.0/17|CN|apnic|1989-01-06|CNNIC-ALIBABA-CN-NET-AP Hangzhou Alibaba Advertising Co.,Ltd., CN
5.178.183.248|16010|5.178.128.0/18|GE|ripencc|2012-08-06|MAGTICOMAS Caucasus-Online, GE
5.9.54.133|24940|5.9.0.0/16|DE|ripencc|2012-04-25|HETZNER-AS, DE
61.164.127.140|4134|61.164.0.0/16|CN|apnic|2000-10-11|CHINANET-BACKBONE No.31,Jin-rong Street, CN
62.109.14.6|29182|62.109.8.0/21|RU|ripencc|2008-09-26|THEFIRST-AS, RU
63.227.116.162|209|63.227.112.0/20|US|arin|1999-06-07|CENTURYLINK-US-LEGACY-QWEST, US
64.201.87.233|21555|64.201.80.0/21|US|arin|2007-01-09|LHTC, US
72.192.27.21|22773|72.192.0.0/18|US|arin|2005-08-03|ASN-CXA-ALL-CCI-22773-RDC, US
75.56.8.205|7018|75.48.0.0/12|US|arin|2006-02-28|ATT-INTERNET4, US
76.86.241.239|20001|76.86.0.0/15|US|arin|2006-12-22|TWC-20001-PACWEST, US
78.102.79.63|16019|78.102.0.0/17|CZ|ripencc|2007-06-04|VODAFONE-CZ-AS, CZ
81.7.10.238|35366|81.7.0.0/19|DE|ripencc|2009-09-18|ISPPRO-AS ISPPRO-AS covers the networks of ISPpro, DE
81.7.16.182|35366|81.7.0.0/19|DE|ripencc|2009-09-18|ISPPRO-AS ISPPRO-AS covers the networks of ISPpro, DE
82.202.68.231|25512|82.202.64.0/18|CZ|ripencc|2003-09-23|CDT-AS The Czech Republic, CZ
84.202.177.206|2119|84.202.0.0/16|NO|ripencc|2004-05-13|TELENOR-NEXTEL Telenor Norge AS, NO
85.214.89.154|6724|85.214.0.0/15|DE|ripencc|2005-02-24|STRATO STRATO AG, DE
85.93.96.18|34315|85.93.96.0/19|CZ|ripencc|2004-12-09|MAXNET-AS, CZ
91.219.25.232|50448|91.219.24.0/22|RU|ripencc|2010-09-02|SYSTEM-SERVICE-AS, RU
94.17.100.238|12709|94.17.96.0/19|MT|ripencc|2008-06-20|MELITACABLE, MT
94.23.21.80|16276|94.23.0.0/16|FR|ripencc|2008-07-15|OVH, FR
