# bitcoin dns seeds and whois results
IP Address|ASN|BGP Prefix|CC|Registry|Allocated|AS Name
104.60.247.230|7018|104.48.0.0/12|US|arin|2014-05-06|ATT-INTERNET4, US
108.20.175.197|701|108.20.0.0/16|US|arin|2009-06-05|UUNET, US
119.8.19.194|135026|119.8.19.0/24|SG|apnic|2007-11-23|THINKDREAM-AS-AP ThinkDream Technology Limited, HK
124.140.114.158|9824|124.140.0.0/17|JP|apnic|2006-03-02|JTCL-JP-AS Jupiter Telecommunication Co. Ltd, JP
13.57.192.196|16509|13.57.0.0/16|US|arin|2020-08-05|AMAZON-02, US
135.181.178.210|24940|135.181.0.0/16|DE|ripencc|1996-04-30|HETZNER-AS, DE
141.136.143.226|13046|141.136.128.0/18|HR|ripencc|2011-06-29|ASN-ISKON HEP, HR
153.127.253.219|24282|153.127.224.0/19|JP|apnic|2011-03-02|KIR KAGOYA JAPAN Inc., JP
165.22.231.74|14061|165.22.224.0/20|US|arin|2018-10-16|DIGITALOCEAN-ASN, US
168.119.129.126|24940|168.119.0.0/16|DE|ripencc|1994-04-05|HETZNER-AS, DE
178.79.83.93|3212|178.79.64.0/18|SI|ripencc|2010-05-07|TELEMACH Broadband Access & Carrier Services, SI
185.254.97.164|60548|185.254.96.0/22|DE|ripencc|2018-04-10|AVORO Avoro, DE
185.66.180.33|201375|185.66.180.0/24|GB|ripencc|2014-08-08|NG-MKDC0, GB
188.93.104.86|8409|188.93.104.0/23|RU|ripencc|2009-05-12|IITP-AS, RU
195.56.63.5|5588|195.56.0.0/16|HU|ripencc|1996-04-26|GTSCE GTS Central Europe / Antel Germany, CZ
204.74.220.13|20248|204.74.208.0/20|US|arin|2009-06-12|TAKE2, US
207.180.227.204|51167|207.180.226.0/23|DE|ripencc|1996-08-21|CONTABO, DE
209.141.57.57|53667|209.141.32.0/19|US|arin|2011-01-27|PONYNET, US
209.145.49.216|40021|209.145.48.0/20|US|arin|2000-07-21|CONTABO, US
213.174.156.71|39572|213.174.128.0/19|NL|ripencc|2008-01-17|ADVANCEDHOSTERS-AS, NL
217.113.121.169|8416|217.113.112.0/20|RU|ripencc|2003-10-13|INFOLINE-AS, RU
217.64.133.220|60098|217.64.128.0/21|RU|ripencc|2008-10-29|INSITINVEST-AS, RU
3.122.93.14|16509|3.120.0.0/14|US|arin|2017-12-20|AMAZON-02, US
34.105.209.243|15169|34.104.0.0/14|US|arin|2018-09-28|GOOGLE, US
34.95.38.162|15169|34.92.0.0/14|US|arin|2018-09-28|GOOGLE, US
45.154.252.98|61072|45.154.252.0/24|GB|ripencc|2019-09-17|EZNET-AS Used by Electrum Technologies GmbH, GB
46.166.148.160|43350|46.166.144.0/21|NL|ripencc|2010-12-16|NFORCE, NL
50.81.111.72|30036|50.81.110.0/23|US|arin|2010-11-03|MEDIACOM-ENTERPRISE-BUSINESS, US
51.77.152.20|16276|51.77.0.0/16|FR|ripencc|1993-09-01|OVH, FR
52.78.27.230|16509|52.78.0.0/16|US|arin|1991-12-19|AMAZON-02, US
74.220.255.190|23175|74.220.254.0/23|US|arin|2008-07-24|POGOZONE, US
80.241.217.54|51167|80.241.216.0/23|DE|ripencc|2011-02-14|CONTABO, DE
81.166.239.85|29695|81.166.0.0/15|NO|ripencc|2005-01-04|ALTIBOX_AS Norway, NO
82.148.25.100|49505|82.148.24.0/22|RU|ripencc|2003-07-10|SELECTEL, RU
82.197.215.125|25596|82.197.192.0/19|NL|ripencc|2003-11-11|CAMBRIUM-AS, NL
83.137.41.10|31394|83.137.40.0/21|AT|ripencc|2004-05-03|NEMOX-NET-AS, AT
85.208.71.20|42275|85.208.71.0/24|FR|ripencc|2019-02-21|THREEFOURTEEN, FR
87.197.99.37|6855|87.197.0.0/16|SK|ripencc|2005-06-29|SK-TELEKOM Slovak Telekom / T-Mobile CZ, SK
87.79.122.155|8422|87.78.0.0/15|DE|ripencc|2005-05-31|NETCOLOGNE, DE
88.88.123.50|2119|88.88.0.0/13|NO|ripencc|2005-11-25|TELENOR-NEXTEL Telenor Norge AS, NO
89.145.253.104|5413|89.145.192.0/18|GB|ripencc|2006-02-02|AS5413, GB
91.193.237.116|42916|91.193.236.0/23|RU|ripencc|2007-05-09|IT-AS, RU
91.211.88.59|206638|91.211.88.0/24|UA|ripencc|2018-04-20|HOSTFORY, UA
91.8.39.246|3320|91.0.0.0/10|DE|ripencc|2006-07-03|DTAG Internet service provider operations, DE
91.93.183.195|34984|91.93.183.0/24|TR|ripencc|2006-08-24|TELLCOM-AS, TR
98.143.78.217|7057|98.143.64.0/20|CA|arin|2009-04-30|MANAGEDNETWORK, CA
