# bitcoin dns seeds and whois results
IP Address|ASN|BGP Prefix|CC|Registry|Allocated|AS Name
103.163.225.51|141780|103.163.225.0/24||apnic||CGCL-AS-AP CHANNEL G COMPANY LIMITED, TH
103.18.124.164|38790|103.18.124.0/22|AU|apnic|2013-03-15|SPIRIT-TELECOM Spirit Telecom (Australia) Pty Ltd, AU
103.57.201.91|136209|103.57.201.0/24|HK|apnic|2015-05-20|BN-AS-KR Korea Fast Networks, KR
104.13.168.146|7018|104.0.0.0/12|US|arin|2014-01-16|ATT-INTERNET4, US
109.206.168.240|50245|109.206.160.0/19|NL|ripencc|2010-01-22|SERVEREL-AS, NL
115.68.52.240|38700|115.68.0.0/17|KR|apnic|2008-07-15|SMILESERV-AS-KR SMILESERV, KR
117.74.45.247|59108|117.74.32.0/19|JP|apnic|2007-07-06|KATCH-NET KATCH NETWORK INC., JP
128.199.218.126|14061|128.199.192.0/18|GB|ripencc|1999-04-12|DIGITALOCEAN-ASN, US
134.209.30.141|14061|134.209.16.0/20|US|arin|2018-10-18|DIGITALOCEAN-ASN, US
15.236.122.186|16509|15.236.0.0/15|US|arin|2018-09-27|AMAZON-02, US
151.20.160.72|1267|151.20.0.0/16|IT|ripencc|1991-05-13|ASN-WINDTRE IUNET, IT
158.255.7.179|50867|158.255.7.0/24|RU|ripencc|2011-11-14|HOSTKEY-RU-AS, NL
162.250.189.53|26832|162.250.188.0/22|CA|arin|2013-12-26|RICAWEBSERVICES, CA
163.172.49.123|12876|163.172.0.0/16|GB|ripencc|1992-02-14|Online SAS, FR
167.71.51.223|14061|167.71.48.0/20|US|arin|2019-04-24|DIGITALOCEAN-ASN, US
169.44.34.203|36351|169.44.0.0/17|US|ripencc|1993-09-01|SOFTLAYER, US
173.182.141.174|852|173.182.128.0/18|CA|arin|2009-06-09|ASN852, CA
173.206.200.13|6407|173.206.192.0/18|CA|arin|2009-10-22|PRIMUS-AS6407, CA
174.80.197.141|20115|174.80.192.0/18|US|arin|2009-02-23|CHARTER-20115, US
176.223.137.37|62282|176.223.128.0/20|LT|ripencc|2011-11-29|RACKRAY UAB Rakrejus, LT
176.99.246.16|35598|176.99.192.0/18|RU|ripencc|2012-06-27|INETCOM, RU
177.52.173.62|263319|177.52.173.0/24|BR|lacnic|2014-03-06|JCR COMERCIO E SERVICOS DE TELECOMUNICACOES LTDA, BR
178.236.87.138|42560|178.236.80.0/20|BA|ripencc|2010-06-02|BA-TELEMACH-AS Telemach d.o.o. Sarajevo, BA
178.32.58.209|16276|178.32.0.0/15|FR|ripencc|2010-01-19|OVH, FR
18.162.120.42|16509|18.162.0.0/16|US|arin|2019-10-07|AMAZON-02, US
185.137.175.197|13030|185.137.172.0/22|CH|ripencc|2016-02-08|INIT7, CH
185.145.129.155|204196|185.145.128.0/22|NL|ripencc|2016-04-01|ABELOHOST, NL
185.209.70.17|204568|185.209.70.0/23|PL|ripencc|2017-06-20|PIKOL-AS, PL
185.251.161.54|24904|185.251.160.0/22|FR|ripencc|2018-03-23|KWAOO K-NET SARL, FR
186.33.167.11|27947|186.33.160.0/19|EC|lacnic|2011-12-07|Telconet S.A, EC
187.105.107.154|28573|187.105.96.0/20|BR|lacnic|2009-11-18|CLARO S.A., BR
188.149.149.142|39651|188.148.0.0/14|SE|ripencc|2009-03-17|COMHEM-SWEDEN, SE
188.37.24.190|12353|188.37.0.0/16|PT|ripencc|2010-01-07|VODAFONE-PT Vodafone Portugal, PT
189.213.221.174|6503|189.213.216.0/21|MX|lacnic|2014-06-12|Axtel, S.A.B. de C.V., MX
192.53.165.60|63949|192.53.160.0/21|US|ripencc|1989-03-27|LINODE-AP Linode, LLC, US
198.27.83.13|16276|198.27.64.0/18|CA|arin|2012-08-28|OVH, FR
198.54.113.214|22612|198.54.113.0/24|US|arin|2015-11-13|NAMECHEAP-NET, US
200.116.154.131|13489|200.116.0.0/16|CO|lacnic|2004-10-11|EPM Telecomunicaciones S.A. E.S.P., CO
202.185.132.105|9930|202.184.0.0/15|MY|apnic|1995-10-09|TTNET-MY TIME dotCom Berhad No. 14, Jalan Majistret U1/26 Hicom Glenmarie Industrial Park 40150 Shah Alam Selangor, Malaysia, MY
204.15.11.35|13331|204.15.8.0/21|US|arin|2015-03-02|METAPEER-INC, US
209.145.63.150|40021|209.145.48.0/20|US|arin|2000-07-21|CONTABO, US
212.186.199.76|6830|212.186.128.0/17|AT|ripencc|1999-03-04|LIBERTYGLOBAL Liberty Global (formerly UPC Broadband Holding, aka AORTA), NL
212.227.211.87|8560|212.227.0.0/16|DE|ripencc|1998-09-10|IONOS-AS This is the joint network for IONOS, Fasthosts, Arsys, 1&1 Mail and Media and 1&1 Telecom. Formerly known as 1&1 Internet SE., DE
213.207.92.226|9150|213.207.64.0/18|NL|ripencc|2005-03-30|INTERCONNECT Interconnect Services BV, NL
213.3.25.204|3303|213.3.0.0/17|CH|ripencc|2000-01-13|SWISSCOM Swisscom (Switzerland) Ltd, CH
216.107.238.165|11524|216.107.224.0/20|US|arin|2000-07-25|SEGNET, US
216.146.251.8|394778|216.146.250.0/23|US|arin|2003-01-17|NEMR, US
217.182.198.228|16276|217.182.0.0/16|FR|ripencc|2001-03-02|OVH, FR
217.23.8.80|49981|217.23.0.0/20|NL|ripencc|2009-02-04|WORLDSTREAM, NL
217.42.193.151|2856|217.32.0.0/12|GB|ripencc|2000-09-20|BT-UK-AS BTnet UK Regional network, GB
217.64.47.138|39324|217.64.32.0/20|FI|ripencc|2010-05-12|MEDIAM-AS, FI
23.253.164.224|19994|23.253.160.0/19|US|arin|2013-11-08|RACKSPACE, US
27.255.79.116|45382|27.255.79.0/24|KR|apnic|2010-06-22|EHOSTIDC-AS-KR EHOSTICT, KR
3.10.5.123|16509|3.8.0.0/14|US|arin|2017-12-20|AMAZON-02, US
3.131.13.61|16509|3.131.0.0/16|US|arin|2018-06-25|AMAZON-02, US
3.236.45.242|14618|3.224.0.0/12|US|arin|2018-06-25|AMAZON-AES, US
3.25.130.248|16509|3.24.0.0/14|US|arin|2017-12-20|AMAZON-02, US
3.91.229.155|14618|3.80.0.0/12|US|arin|2017-12-20|AMAZON-AES, US
31.132.17.56|57294|31.132.16.0/20|CZ|ripencc|2011-06-16|INTERNET_EXPERT_, CZ
31.134.121.208|56668|31.134.120.0/21|UA|ripencc|2011-04-21|SIMNET-UA-AS Kiev, Ukraine, UA
34.125.77.92|15169|34.124.0.0/14|US|arin|2018-09-28|GOOGLE, US
34.201.101.33|14618|34.192.0.0/12|US|arin|2016-09-12|AMAZON-AES, US
34.255.158.175|16509|34.248.0.0/13|US|arin|2016-09-12|AMAZON-02, US
34.64.209.210|139070|34.64.0.0/16|US|arin|2018-09-28|GOOGLE-AS-AP Google Asia Pacific Pte. Ltd., SG
35.180.187.229|16509|35.180.0.0/16|US|arin|2016-08-09|AMAZON-02, US
37.142.41.226|12849|37.142.40.0/21|IL|ripencc|2012-02-29|HOTNET-IL AMS-IX Admin LAN, IL
45.137.190.249|57271|45.137.190.0/24|RU|ripencc|2019-08-06|BITWEB-AS, RU
45.151.125.33|212663|45.151.125.0/24|PL|ripencc|2019-09-10|REMOTE-ADMIN-AS, PL
45.207.58.113|133199|45.207.58.0/24|SC|afrinic|2014-12-01|SONDERCLOUDLIMITED-AS-AP SonderCloud Limited, HK
45.46.162.85|11351|45.46.0.0/15|US|arin|2015-02-02|TWC-11351-NORTHEAST, US
45.58.126.138|23470|45.58.126.0/24|US|arin|2015-02-24|RELIABLESITE, US
46.132.188.59|1759|46.132.0.0/16|FI|ripencc|2010-10-20|TSF-IP-CORE Telia Finland Oyj, FI
46.32.53.120|39642|46.32.32.0/19|DK|ripencc|2010-08-12|DK-ESS-AS, DK
46.4.22.156|24940|46.4.0.0/16|DE|ripencc|2010-08-19|HETZNER-AS, DE
47.89.188.86|45102|47.89.160.0/19|US|arin|2015-05-18|CNNIC-ALIBABA-US-NET-AP Alibaba (US) Technology Co., Ltd., CN
47.99.158.238|37963|47.98.0.0/15|CN|apnic|1989-01-06|CNNIC-ALIBABA-CN-NET-AP Hangzhou Alibaba Advertising Co.,Ltd., CN
5.188.56.59|49505|5.188.56.0/22|RU|ripencc|2012-08-09|SELECTEL, RU
5.39.70.222|16276|5.39.0.0/17|FR|ripencc|2012-05-15|OVH, FR
5.9.138.24|24940|5.9.0.0/16|DE|ripencc|2012-04-25|HETZNER-AS, DE
50.54.141.230|27017|50.54.128.0/17|US|arin|2010-09-24|ZIPLY-FIBER-LEGACY-ASN, US
51.222.121.169|16276|51.222.0.0/16|CA|arin|2020-03-31|OVH, FR
52.87.246.129|14618|52.86.0.0/15|US|arin|1991-12-19|AMAZON-AES, US
54.226.19.210|14618|54.226.0.0/15|US|arin|2012-03-01|AMAZON-AES, US
54.38.236.0|16276|54.38.0.0/16|FR|ripencc|1992-03-17|OVH, FR
62.109.14.6|29182|62.109.8.0/21|RU|ripencc|2008-09-26|THEFIRST-AS, RU
62.165.206.166|20845|62.165.192.0/18|HU|ripencc|2002-11-26|DIGICABLE, HU
62.234.188.160|45090|62.234.176.0/20|CN|apnic|2001-07-30|CNNIC-TENCENT-NET-AP Shenzhen Tencent Computer Systems Company Limited, CN
62.80.227.49|25406|62.80.224.0/20|LT|ripencc|2002-11-08|SPLIUS-AS, LT
63.80.184.72|16578|63.80.184.0/24|US|arin|1999-01-22|DATANOC, US
75.130.218.151|20115|75.130.208.0/20|US|arin|2006-07-17|CHARTER-20115, US
77.37.152.104|42610|77.37.128.0/17|RU|ripencc|2007-03-21|NCNET-AS, RU
78.119.180.62|8228|78.112.0.0/12|FR|ripencc|2007-05-03|CEGETEL-AS, FR
8.209.82.155|45102|8.209.64.0/19|SG|apnic|1992-12-01|CNNIC-ALIBABA-US-NET-AP Alibaba (US) Technology Co., Ltd., CN
8.210.170.138|45102|8.210.128.0/17|SG|apnic|1992-12-01|CNNIC-ALIBABA-US-NET-AP Alibaba (US) Technology Co., Ltd., CN
80.136.18.237|3320|80.128.0.0/12|DE|ripencc|2001-08-06|DTAG Internet service provider operations, DE
80.147.82.165|3320|80.144.0.0/13|DE|ripencc|2001-08-06|DTAG Internet service provider operations, DE
80.241.210.4|51167|80.241.210.0/23|DE|ripencc|2011-02-14|CONTABO, DE
81.232.78.75|3301|81.224.0.0/12|SE|ripencc|2002-10-04|TELIANET-SWEDEN Telia Company, SE
82.64.247.247|12322|82.64.0.0/14|FR|ripencc|2003-04-03|PROXAD, FR
84.172.37.233|3320|84.128.0.0/10|DE|ripencc|2004-03-10|DTAG Internet service provider operations, DE
84.237.7.249|34479|84.237.0.0/20|RU|ripencc|2004-06-28|TSC-AS High Current Electronics Institute, RU
84.246.200.122|42455|84.246.200.0/22|IM|ripencc|2008-04-04|WI-MANX-AS, IM
85.13.237.23|31708|85.13.192.0/18|GB|ripencc|2005-04-05|COREIX-UK-AS London, Great Britain, GB
86.87.32.31|1136|86.80.0.0/12|NL|ripencc|2005-03-23|KPN KPN National, NL
88.198.52.139|24940|88.198.0.0/16|DE|ripencc|2005-12-27|HETZNER-AS, DE
88.86.243.241|48432|88.86.240.0/20|FR|ripencc|2006-02-15|SCGS-AS, FR
89.142.77.30|5603|89.142.64.0/18|SI|ripencc|2006-03-03|SIOL-NET Telekom Slovenije d.d., SI
89.166.209.81|9145|89.166.128.0/17|DE|ripencc|2006-03-22|EWETEL Cloppenburger Strasse 310, DE
90.217.58.1|5607|90.192.0.0/11|GB|ripencc|2007-06-14|BSKYB-BROADBAND-AS, GB
91.195.192.38|62136|91.195.192.0/24|GB|ripencc|2007-10-04|U46, GB
91.219.58.15|197275|91.219.58.0/24|RU|ripencc|2010-09-21|ASLINKTELECOMNN, RU
91.87.96.138|47377|91.87.96.0/19|BE|ripencc|2006-08-15|ORANGE_BELGIUM_SA KPN Belgium Business NV has been acquired by Mobistar, BE
93.115.28.92|16125|93.115.24.0/21|LT|ripencc|2007-12-21|CHERRYSERVERS1-AS, LT
94.17.100.238|12709|94.17.96.0/19|MT|ripencc|2008-06-20|MELITACABLE, MT
94.194.162.152|5607|94.192.0.0/14|GB|ripencc|2008-08-14|BSKYB-BROADBAND-AS, GB
94.26.49.71|48452|94.26.49.0/24|BG|ripencc|2008-06-11|TRAFFIC-NET, BG
95.105.186.195|15962|95.105.128.0/17|SK|ripencc|2008-12-01|OSK-DNI Slovakia, SK
95.217.44.33|24940|95.217.0.0/16|DE|ripencc|2009-02-24|HETZNER-AS, DE
98.162.215.224|22773|98.162.192.0/18|US|arin|2007-07-20|ASN-CXA-ALL-CCI-22773-RDC, US
