# bitcoin dns seeds and whois results
IP Address|ASN|BGP Prefix|CC|Registry|Allocated|AS Name
103.109.101.216|206264|103.109.100.0/22|HK|apnic|2018-02-12|AMARUTU-TECHNOLOGY, SC
116.203.230.250|24940|116.203.0.0/16|DE|ripencc|2011-01-17|HETZNER-AS, DE
117.27.253.235|133774|117.27.253.0/24|CN|apnic|2007-06-07|CHINATELECOM-FUJIAN-FUZHOU-IDC1 Fuzhou, CN
118.93.57.249|9500|118.93.0.0/16|NZ|apnic|2007-08-24|VODAFONE-TRANSIT-AS Vodafone NZ Ltd., NZ
119.8.47.225|136907|119.8.32.0/19|SG|apnic|2007-11-23|HWCLOUDS-AS-AP HUAWEI CLOUDS, HK
125.24.200.135|23969|125.24.192.0/20|TH|apnic|2005-08-08|TOT-NET TOT Public Company Limited, TH
13.115.95.157|16509|13.112.0.0/14|US|arin|2016-08-09|AMAZON-02, US
13.212.141.79|16509|13.212.0.0/15|US|arin|2019-10-01|AMAZON-02, US
13.236.100.67|16509|13.236.0.0/14|US|arin|2019-10-01|AMAZON-02, US
13.57.250.92|16509|13.57.0.0/16|US|arin|2020-08-05|AMAZON-02, US
13.79.6.157|8075|13.64.0.0/11|US|arin|2015-03-26|MICROSOFT-CORP-MSN-AS-BLOCK, US
130.185.109.17|51191|130.185.104.0/21|DE|ripencc|2011-10-24|XIRRA, DE
138.201.196.156|24940|138.201.0.0/16|DE|ripencc|1990-05-23|HETZNER-AS, DE
141.223.82.131|3784|141.223.64.0/18|KR|apnic|1990-08-03|POSTECH-AS-KR Pohang University of Science and Technology, KR
144.76.1.155|24940|144.76.0.0/16|DE|ripencc|1990-11-16|HETZNER-AS, DE
148.251.151.125|24940|148.251.0.0/16|DE|ripencc|1993-09-01|HETZNER-AS, DE
15.185.182.162|16509|15.185.0.0/16|US|arin|2021-01-28|AMAZON-02, US
15.237.117.105|16509|15.236.0.0/15|US|arin|2018-09-27|AMAZON-02, US
151.80.34.113|16276|151.80.0.0/16|IT|ripencc|1991-05-13|OVH, FR
152.115.191.196|31027|152.115.128.0/17|DK|ripencc|1991-08-12|GLOBALCONNECT-AS, DK
157.7.211.107|7506|157.7.128.0/17|JP|apnic|1992-08-14|INTERQ GMO Internet,Inc, JP
158.129.7.222|2847|158.129.0.0/17|LT|ripencc|1992-03-05|LITNET, LT
159.65.132.97|14061|159.65.128.0/20|US|arin|2017-10-24|DIGITALOCEAN-ASN, US
167.71.164.131|14061|167.71.160.0/20|US|arin|2019-04-24|DIGITALOCEAN-ASN, US
167.99.209.209|14061|167.99.208.0/20|US|arin|2017-11-10|DIGITALOCEAN-ASN, US
168.119.176.220|24940|168.119.0.0/16|DE|ripencc|1994-04-05|HETZNER-AS, DE
173.212.223.94|51167|173.212.192.0/19|DE|ripencc|2009-10-26|CONTABO, DE
176.191.182.3|5410|176.128.0.0/10|FR|ripencc|2011-07-06|BOUYGTEL-ISP, FR
177.52.173.62|263319|177.52.173.0/24|BR|lacnic|2014-03-06|JCR COMERCIO E SERVICOS DE TELECOMUNICACOES LTDA, BR
178.236.87.138|42560|178.236.80.0/20|BA|ripencc|2010-06-02|BA-TELEMACH-AS Telemach d.o.o. Sarajevo, BA
178.251.10.184|42184|178.251.10.0/24|DE|ripencc|2010-06-16|AS-TKRZ, DE
178.33.228.210|16276|178.32.0.0/15|FR|ripencc|2010-01-19|OVH, FR
178.63.16.7|24940|178.63.0.0/16|DE|ripencc|2010-03-02|HETZNER-AS, DE
18.159.60.231|16509|18.156.0.0/14|US|arin|2019-10-07|AMAZON-02, US
184.166.87.98|33588|184.166.0.0/15|US|arin|2010-07-28|BRESNAN-33588, US
185.134.213.130|43451|185.134.212.0/22|SK|ripencc|2016-01-18|RADIOLAN-SK-AS, SK
185.59.101.51|201492|185.59.101.0/24|DE|ripencc|2014-05-30|NETVERSOR-4, DE
185.95.219.53|39540|185.95.219.0/24|CH|ripencc|2015-04-13|COMMUNITYRACK-RMA, CH
188.155.216.38|6730|188.154.0.0/15|CH|ripencc|2009-05-08|SUNRISE, CH
188.166.102.232|14061|188.166.64.0/18|US|ripencc|2009-06-05|DIGITALOCEAN-ASN, US
188.190.234.13|56433|188.190.224.0/19|UA|ripencc|2011-02-17|ASLANUA-NETWORK, UA
190.164.232.254|22047|190.164.224.0/19|CL|lacnic|2007-10-30|VTR BANDA ANCHA S.A., CL
193.111.156.2|24881|193.111.156.0/22|UA|ripencc|2002-04-25|INTERPHONE-AS, UA
201.234.224.223|263771|201.234.224.0/24|AR|lacnic|2005-03-29|IP NET, C.A., VE
202.79.167.65|64050|202.79.167.0/24|SG|apnic|2002-03-25|BCPL-SG BGPNET Global ASN, SG
206.55.210.10|33618|206.55.210.0/24|US|arin|2008-03-27|SERVLET-LLC-AS, US
207.180.207.205|51167|207.180.206.0/23|DE|ripencc|1996-08-21|CONTABO, DE
208.73.156.62|40447|208.73.156.0/22|US|arin|2017-02-08|SKYHAWK-GROUP, US
211.233.16.218|3786|211.233.0.0/18|KR|apnic|2000-09-08|LGDACOM LG DACOM Corporation, KR
217.11.249.81|15685|217.11.249.0/24|CZ|ripencc|2001-06-22|CASABLANCA-AS Internet & Collocation Provider, CZ
24.226.68.134|7992|24.226.0.0/17|CA|arin|1997-03-31|COGECOWAVE, CA
3.121.94.224|16509|3.120.0.0/14|US|arin|2017-12-20|AMAZON-02, US
3.15.37.142|16509|3.14.0.0/15|US|arin|2017-12-20|AMAZON-02, US
3.18.101.80|16509|3.16.0.0/14|US|arin|2017-12-20|AMAZON-02, US
3.34.180.213|16509|3.34.0.0/15|US|arin|2017-12-20|AMAZON-02, US
3.8.165.235|16509|3.8.0.0/14|US|arin|2017-12-20|AMAZON-02, US
3.89.143.143|14618|3.80.0.0/12|US|arin|2017-12-20|AMAZON-AES, US
31.184.218.3|49505|31.184.218.0/24|RU|ripencc|2011-03-04|SELECTEL, RU
31.47.202.112|34385|31.47.200.0/21|SE|ripencc|2011-03-22|TRIPNET, SE
34.101.129.24|139190|34.101.0.0/16|US|arin|2018-09-28|GOOGLE-AS-AP Google Asia Pacific Pte. Ltd., SG
34.106.170.167|15169|34.104.0.0/14|US|arin|2018-09-28|GOOGLE, US
34.107.118.237|15169|34.104.0.0/14|US|arin|2018-09-28|GOOGLE, US
34.125.126.33|15169|34.124.0.0/14|US|arin|2018-09-28|GOOGLE, US
35.184.77.189|15169|35.184.64.0/19|US|arin|2016-10-11|GOOGLE, US
35.185.11.70|15169|35.185.0.0/19|US|arin|2016-10-11|GOOGLE, US
37.229.25.145|15895|37.229.0.0/16|UA|ripencc|2012-04-10|KSNET-AS, UA
39.97.227.7|37963|39.96.0.0/14|CN|apnic|2011-04-05|CNNIC-ALIBABA-CN-NET-AP Hangzhou Alibaba Advertising Co.,Ltd., CN
42.194.136.58|45090|42.194.128.0/18|CN|apnic|2011-03-17|CNNIC-TENCENT-NET-AP Shenzhen Tencent Computer Systems Company Limited, CN
45.130.58.202|43915|45.130.56.0/22|GB|ripencc|2019-07-17|TRUESPEED, GB
45.84.42.80|57112|45.84.40.0/22|NL|ripencc|2019-05-31|ASN-F2X, NL
46.126.217.197|6830|46.126.0.0/16|CH|ripencc|2010-06-01|LIBERTYGLOBAL Liberty Global (formerly UPC Broadband Holding, aka AORTA), NL
47.245.35.30|45102|47.245.32.0/20|US|arin|2016-04-15|CNNIC-ALIBABA-US-NET-AP Alibaba (US) Technology Co., Ltd., CN
5.188.56.59|49505|5.188.56.0/22|RU|ripencc|2012-08-09|SELECTEL, RU
5.188.62.24|34665|5.188.62.0/24|RU|ripencc|2012-08-09|PINDC-AS, RU
5.196.167.44|16276|5.196.0.0/16|FR|ripencc|2012-08-23|OVH, FR
5.9.87.210|24940|5.9.0.0/16|DE|ripencc|2012-04-25|HETZNER-AS, DE
50.125.224.3|27017|50.125.128.0/17|US|arin|2011-09-06|ZIPLY-FIBER-LEGACY-ASN, US
51.158.167.213|12876|51.158.128.0/17|FR|ripencc|1993-09-01|Online SAS, FR
51.79.82.75|16276|51.79.0.0/17|CA|arin|2019-01-10|OVH, FR
52.205.232.109|14618|52.200.0.0/13|US|arin|2015-09-02|AMAZON-AES, US
54.144.91.180|14618|54.144.0.0/14|US|arin|2014-10-23|AMAZON-AES, US
59.110.12.12|37963|59.110.0.0/17|CN|apnic|2006-09-19|CNNIC-ALIBABA-CN-NET-AP Hangzhou Alibaba Advertising Co.,Ltd., CN
60.237.91.10|2518|60.236.0.0/14|JP|apnic|2004-08-04|BIGLOBE BIGLOBE Inc., JP
61.244.107.60|9269|61.244.64.0/18|HK|apnic|2004-04-15|HKBN-AS-AP Hong Kong Broadband Network Ltd., HK
62.91.20.222|20686|62.91.0.0/16|DE|ripencc|2001-06-11|BISPING ISP & Citycarrier, Germany, DE
65.60.229.182|12083|65.60.224.0/20|US|arin|2002-11-01|WOW-INTERNET, US
65.96.186.179|7922|65.96.0.0/16|US|arin|2001-01-02|COMCAST-7922, US
66.208.64.128|10352|66.208.64.0/20|US|arin|2006-04-17|WCTC, US
66.240.237.172|10439|66.240.192.0/18|US|arin|2003-06-17|CARINET, US
72.133.177.119|10796|72.133.128.0/18|US|arin|2005-08-02|TWC-10796-MIDWEST, US
72.53.134.182|11814|72.53.128.0/20|CA|arin|2005-07-29|DISTRIBUTEL-AS11814, CA
75.46.43.6|7018|75.46.0.0/16|US|arin|2006-02-28|ATT-INTERNET4, US
76.10.221.49|11013|76.10.208.0/20|US|arin|2007-03-02|BLUE-AS, US
76.74.168.21|13768|76.74.168.0/21|CA|arin|2007-04-04|COGECO-PEER1, CA
78.26.26.146|202204|78.26.0.0/18|NO|ripencc|2007-08-29|TROLLFJORD, NO
80.100.128.128|3265|80.100.0.0/15|NL|ripencc|2001-07-16|XS4ALL-NL Amsterdam, NL
80.108.210.64|6830|80.108.0.0/16|AT|ripencc|2001-07-19|LIBERTYGLOBAL Liberty Global (formerly UPC Broadband Holding, aka AORTA), NL
80.93.213.246|20649|80.93.213.0/24|TR|ripencc|2005-07-25|ASFIBERSUNUCU, TR
82.195.237.253|1836|82.195.224.0/19|CH|ripencc|2003-10-27|GREEN green.ch AG Autonomous System, CH
82.221.106.178|50613|82.221.96.0/19|IS|ripencc|2003-12-11|THORDC-AS, IS
83.151.238.65|51918|83.151.236.0/22|GB|ripencc|2004-03-30|CERBERUSNETWORKS-AS, GB
85.14.79.26|31242|85.14.64.0/18|PL|ripencc|2005-04-06|TKPSA-AS, PL
86.136.130.115|2856|86.128.0.0/12|GB|ripencc|2005-02-07|BT-UK-AS BTnet UK Regional network, GB
86.31.163.247|5089|86.24.0.0/13|GB|ripencc|2005-03-29|NTL, GB
88.201.242.91|35807|88.201.128.0/17|RU|ripencc|2005-11-08|SKYNET-SPB-AS, RU
88.202.183.8|13213|88.202.176.0/20|GB|ripencc|2005-11-22|UK2NET-AS, GB
88.99.194.109|24940|88.99.0.0/16|DE|ripencc|2005-08-03|HETZNER-AS, DE
89.186.216.139|39441|89.186.216.0/21|DE|ripencc|2012-09-11|HABNET, DE
91.122.46.120|12389|91.122.0.0/17|RU|ripencc|2006-09-22|ROSTELECOM-AS, RU
91.195.192.38|62136|91.195.192.0/24|GB|ripencc|2007-10-04|U46, GB
91.237.221.99|51655|91.237.221.0/24|RU|ripencc|2012-03-30|ILIM-NET, CZ
92.232.198.59|5089|92.232.0.0/16|GB|ripencc|2007-10-31|NTL, GB
93.187.182.176|48124|93.187.180.0/22|RU|ripencc|2008-07-22|COMSTAR-REGIONS-TVER, RU
94.17.100.238|12709|94.17.96.0/19|MT|ripencc|2008-06-20|MELITACABLE, MT
94.190.41.137|48524|94.190.0.0/18|RU|ripencc|2008-08-21|INTERRA-AS at Pervouralsk (Bilimbay, Severka, Sredneuralsk), Revda (Degtyarsk), Kachkanar, Lesnoy (N.Tura), Polevskoy, Krasnoufimsk, Asbest cities of Sverdlovsk reg, RU
94.62.137.251|12353|94.60.0.0/14|PT|ripencc|2008-06-23|VODAFONE-PT Vodafone Portugal, PT
95.216.165.43|24940|95.216.0.0/16|DE|ripencc|2009-02-24|HETZNER-AS, DE
98.37.113.232|7922|98.32.0.0/11|US|arin|2007-06-06|COMCAST-7922, US
