# bitcoin dns seeds and whois results
IP Address|ASN|BGP Prefix|CC|Registry|Allocated|AS Name
103.37.205.47|56068|103.37.204.0/22|NZ|apnic|2014-08-27|LIGHTSPEED-TECHNOLOGY-AS-AP Lightspeed Technology Group Limited, NZ
104.12.66.70|7018|104.0.0.0/12|US|arin|2014-01-16|ATT-INTERNET4, US
104.248.246.94|14061|104.248.240.0/20|US|arin|2018-08-06|DIGITALOCEAN-ASN, US
109.235.69.120|62282|109.235.64.0/21|LT|ripencc|2010-01-22|RACKRAY UAB Rakrejus, LT
120.136.123.202|9698|120.136.112.0/20|KR|apnic|2008-04-08|YOUNGDOONG-AS-KR LG HelloVision Corp., KR
121.78.60.134|9286|121.78.0.0/18|KR|apnic|2006-06-20|KINXIDC-AS-KR KINX, KR
13.57.250.92|16509|13.57.0.0/16|US|arin|2020-08-05|AMAZON-02, US
136.243.133.21|24940|136.243.0.0/16|DE|ripencc|2004-04-14|HETZNER-AS, DE
139.153.255.107|786|139.153.0.0/16|GB|ripencc|1992-10-05|JANET Jisc Services Limited, GB
14.116.205.182|58466|14.116.192.0/19|CN|apnic|2010-09-06|CT-GUANGZHOU-IDC CHINANET Guangdong province network, CN
140.82.62.53|20473|140.82.60.0/22|US|arin|2018-03-15|AS-CHOOPA, US
151.205.188.39|701|151.205.160.0/19|US|arin|1991-09-25|UUNET, US
159.65.169.76|14061|159.65.160.0/20|US|arin|2017-10-24|DIGITALOCEAN-ASN, US
161.97.131.71|51167|161.97.128.0/19|DE|ripencc|1992-06-23|CONTABO, DE
162.156.219.13|852|162.156.192.0/18|CA|arin|2013-03-07|ASN852, CA
162.255.116.244|22612|162.255.116.0/24|US|arin|2014-05-14|NAMECHEAP-NET, US
165.22.233.194|14061|165.22.224.0/20|US|arin|2018-10-16|DIGITALOCEAN-ASN, US
165.22.30.70|14061|165.22.16.0/20|US|arin|2018-10-16|DIGITALOCEAN-ASN, US
168.119.172.105|24940|168.119.0.0/16|DE|ripencc|1994-04-05|HETZNER-AS, DE
168.119.88.108|24940|168.119.0.0/16|DE|ripencc|1994-04-05|HETZNER-AS, DE
173.184.29.223|7029|173.184.0.0/13|US|arin|2009-05-06|WINDSTREAM, US
173.212.221.11|51167|173.212.192.0/19|DE|ripencc|2009-10-26|CONTABO, DE
173.249.48.41|51167|173.249.48.0/23|DE|ripencc|2010-05-26|CONTABO, DE
176.9.125.15|24940|176.9.0.0/16|DE|ripencc|2011-05-17|HETZNER-AS, DE
176.9.156.228|24940|176.9.0.0/16|DE|ripencc|2011-05-17|HETZNER-AS, DE
176.9.28.202|24940|176.9.0.0/16|DE|ripencc|2011-05-17|HETZNER-AS, DE
178.236.87.138|42560|178.236.80.0/20|BA|ripencc|2010-06-02|BA-TELEMACH-AS Telemach d.o.o. Sarajevo, BA
180.216.246.81|4804|180.216.128.0/17|AU|apnic|2009-10-05|MPX-AS Microplex PTY LTD, AU
182.253.18.141|17451|182.253.18.0/24|ID|apnic|2010-05-10|BIZNET-AS-AP BIZNET NETWORKS, ID
183.77.157.168|4685|183.76.0.0/15|JP|apnic|2009-10-30|ASAHI-NET Asahi Net, JP
185.17.143.220|48757|185.17.140.0/22|RU|ripencc|2013-01-30|TRUSTINFO TrustInfo, Moscow, Russia, RU
185.215.227.56|40676|185.215.227.0/24|GB|ripencc|2017-08-02|AS40676, US
185.51.61.244|42065|185.51.60.0/22|AG|ripencc|2014-03-21|ETELECOM-AS, RU
185.66.180.33|201375|185.66.180.0/24|GB|ripencc|2014-08-08|NG-MKDC0, GB
185.8.172.118|60631|185.8.172.0/24|IR|ripencc|2012-11-01|PARVASYSTEM, IR
188.214.132.45|16125|188.214.128.0/21|LT|ripencc|2009-05-08|CHERRYSERVERS1-AS, LT
188.24.148.198|8708|188.24.0.0/15|RO|ripencc|2009-02-11|RCS-RDS 73-75 Dr. Staicovici, RO
193.168.147.25|62000|193.168.146.0/23|FR|ripencc|2018-12-11|NETRIX-AS Netrix, FR
193.196.39.95|34878|193.196.32.0/20|DE|ripencc|1993-09-01|KIT Karlsruhe Institute of Technology, DE
194.14.246.49|50066|194.14.246.0/24|SE|ripencc|1993-12-09|SRSTUBES-AS, SE
194.176.118.175|49352|194.176.118.0/24|RU|ripencc|2006-07-26|LOGOL-AS, RU
195.201.77.196|24940|195.201.0.0/16|DE|ripencc|1997-09-22|HETZNER-AS, DE
199.115.205.83|36436|199.115.204.0/23|US|arin|2011-04-22|INFOBUNKER, US
2.104.14.161|3292|2.104.0.0/13|DK|ripencc|2010-05-04|TDC TDC A/S, DK
2.31.162.242|12576|2.31.0.0/16|GB|ripencc|2010-09-21|EE Ltd, GB
2.86.48.242|6799|2.86.0.0/16|GR|ripencc|2010-05-12|OTENET-GR Athens - Greece, GR
205.196.146.99|16842|205.196.146.0/24|US|arin|2004-03-26|5DL-AS, US
206.189.101.68|14061|206.189.96.0/20|US|arin|1995-11-15|DIGITALOCEAN-ASN, US
206.54.209.61|12177|206.54.192.0/19|US|arin|2004-05-27|ETS-TELEPHONE-COMPANY, US
207.254.73.148|395337|207.254.72.0/22|US|arin|2016-02-08|MACST-VEGAS, US
213.144.147.16|13030|213.144.144.0/20|CH|ripencc|2000-01-19|INIT7, CH
213.148.199.23|16030|213.148.199.0/24|ES|ripencc|2008-01-31|ALTECOM, ES
216.8.128.72|7057|216.8.128.0/19|CA|arin|2001-01-04|MANAGEDNETWORK, CA
217.133.12.80|8612|217.133.0.0/16|IT|ripencc|2001-01-24|TISCALI-, IT
217.182.174.139|16276|217.182.0.0/16|FR|ripencc|2001-03-02|OVH, FR
217.26.47.10|197312|217.26.47.0/24|CH|ripencc|2000-10-16|BSOURCE-AS, CH
217.64.47.138|39324|217.64.32.0/20|FI|ripencc|2010-05-12|MEDIAM-AS, FI
24.192.245.64|12083|24.192.240.0/21|US|arin|2005-06-30|WOW-INTERNET, US
27.109.153.99|4609|27.109.128.0/19|MO|apnic|2010-06-10|CTM-MO Companhia de Telecomunicacoes de Macau SARL, MO
27.125.136.147|55430|27.125.128.0/18|SG|apnic|2010-10-12|STARHUB-NGNBN Starhub Ltd, SG
3.112.50.156|16509|3.112.0.0/14|US|arin|2017-12-20|AMAZON-02, US
3.81.144.22|14618|3.80.0.0/12|US|arin|2017-12-20|AMAZON-AES, US
35.178.202.209|16509|35.178.0.0/15|US|arin|2016-08-09|AMAZON-02, US
35.234.152.236|15169|35.232.0.0/14|US|arin|2017-09-29|GOOGLE, US
35.245.67.98|15169|35.244.0.0/14|US|arin|2017-09-29|GOOGLE, US
37.187.134.176|16276|37.187.0.0/16|FR|ripencc|2012-03-20|OVH, FR
40.121.70.33|8075|40.120.0.0/14|US|arin|2015-02-23|MICROSOFT-CORP-MSN-AS-BLOCK, US
43.225.157.152|133115|43.225.157.0/24|HK|apnic|2016-07-11|HKKFGL-AS-AP HK Kwaifong Group Limited, HK
45.149.78.128|60631|45.149.78.0/24|IR|ripencc|2019-09-04|PARVASYSTEM, IR
45.155.157.21|206238|45.155.156.0/23|AE|ripencc|2019-09-18|FREEDOMINTERNET, NL
46.188.15.6|8334|46.188.0.0/17|RU|ripencc|2010-11-24|CO-2COM-AS Moscow, RU
46.6.8.135|15704|46.6.0.0/18|ES|ripencc|2010-09-03|AS15704, ES
47.108.78.200|37963|47.108.0.0/16|CN|apnic|1989-01-06|CNNIC-ALIBABA-CN-NET-AP Hangzhou Alibaba Advertising Co.,Ltd., CN
47.156.145.43|5650|47.156.0.0/16|US|arin|2015-08-28|FRONTIER-FRTR, US
47.196.131.158|5650|47.196.0.0/14|US|arin|2015-08-28|FRONTIER-FRTR, US
5.14.14.58|8708|5.12.0.0/14|RO|ripencc|2012-04-27|RCS-RDS 73-75 Dr. Staicovici, RO
5.9.5.135|24940|5.9.0.0/16|DE|ripencc|2012-04-25|HETZNER-AS, DE
50.98.36.67|852|50.98.0.0/16|CA|arin|2011-03-31|ASN852, CA
51.83.67.9|16276|51.83.0.0/16|FR|ripencc|1993-09-01|OVH, FR
51.89.235.94|16276|51.89.0.0/16|FR|ripencc|1993-09-01|OVH, FR
52.57.201.88|16509|52.57.0.0/16|US|arin|1991-12-19|AMAZON-02, US
54.38.177.175|16276|54.38.0.0/16|FR|ripencc|1992-03-17|OVH, FR
62.113.240.122|47447|62.113.192.0/18|DE|ripencc|2009-04-15|TTM, DE
62.13.193.206|15498|62.13.192.0/21|AT|ripencc|2000-07-04|RTCNOW RTCnow Streaming Services GmbH, AT
62.28.190.194|15525|62.28.0.0/16|PT|ripencc|2006-06-08|MEO-EMPRESAS, PT
64.187.169.230|54858|64.187.160.0/20|US|arin|2012-12-06|AS-SBI, US
64.225.71.231|14061|64.225.64.0/20|US|arin|2019-08-14|DIGITALOCEAN-ASN, US
64.46.4.160|40029|64.46.0.0/19|CA|arin|2006-02-10|NOVUS-3, CA
64.79.104.40|53264|64.79.96.0/20|US|arin|2010-03-05|NCHC-603, US
65.78.4.234|6079|65.78.0.0/17|US|arin|2002-08-08|RCN-AS, US
69.12.80.84|8100|69.12.64.0/19|US|arin|2014-02-27|ASN-QUADRANET-GLOBAL, US
69.59.18.206|397444|69.59.18.0/24|US|arin|2019-04-18|AS-OKI, US
71.237.150.172|7922|71.224.0.0/12|US|arin|2005-04-15|COMCAST-7922, US
71.56.235.108|7922|71.56.0.0/13|US|arin|2005-04-29|COMCAST-7922, US
74.118.137.119|20326|74.118.136.0/21|US|arin|2009-10-12|TERASWITCH, US
76.64.171.144|577|76.64.0.0/16|CA|arin|2006-12-04|BACOM, CA
77.35.170.10|12389|77.35.128.0/18|RU|ripencc|2007-01-24|ROSTELECOM-AS, RU
77.37.152.104|42610|77.37.128.0/17|RU|ripencc|2007-03-21|NCNET-AS, RU
78.63.73.155|8764|78.63.72.0/22|LT|ripencc|2007-03-21|TELIA-LIETUVA, LT
79.98.105.138|197216|79.98.105.0/24|BG|ripencc|2012-08-29|DELTA-BG-AS, BG
82.202.68.231|25512|82.202.64.0/18|CZ|ripencc|2003-09-23|CDT-AS The Czech Republic, CZ
82.38.182.164|5089|82.38.0.0/16|GB|ripencc|2003-01-31|NTL, GB
83.161.157.200|3265|83.160.0.0/14|NL|ripencc|2004-03-03|XS4ALL-NL Amsterdam, NL
86.139.27.108|2856|86.128.0.0/12|GB|ripencc|2005-02-07|BT-UK-AS BTnet UK Regional network, GB
87.121.37.156|43561|87.121.37.0/24|BG|ripencc|2005-07-12|NET1-AS, BG
88.217.115.253|8767|88.217.0.0/16|DE|ripencc|2005-11-23|MNET-AS Germany, DE
89.133.68.65|6830|89.132.0.0/15|HU|ripencc|2006-01-17|LIBERTYGLOBAL Liberty Global (formerly UPC Broadband Holding, aka AORTA), NL
89.250.28.9|44206|89.250.16.0/20|RU|ripencc|2006-07-31|SIBSET-KRS-AS, RU
90.146.153.21|12605|90.146.128.0/17|AT|ripencc|2006-11-23|LIWEST-AT Linz, Austria, AT
91.237.77.5|198646|91.237.77.0/24|PL|ripencc|2012-03-21|INETHD-AS, PL
93.234.115.116|3320|93.192.0.0/10|DE|ripencc|2008-02-12|DTAG Internet service provider operations, DE
93.95.88.13|35434|93.95.88.0/21|PL|ripencc|2009-02-13|PIRXNET-AS, PL
94.181.46.72|41661|94.181.32.0/20|RU|ripencc|2008-09-11|ERTH-CHEL-AS, RU
94.195.113.109|5607|94.192.0.0/14|GB|ripencc|2008-08-14|BSKYB-BROADBAND-AS, GB
94.208.223.141|33915|94.208.0.0/14|NL|ripencc|2008-07-22|TNF-AS, NL
95.105.234.196|15962|95.105.128.0/17|SK|ripencc|2008-12-01|OSK-DNI Slovakia, SK
95.213.145.218|49505|95.213.145.0/24|RU|ripencc|2009-08-12|SELECTEL, RU
95.217.33.109|24940|95.217.0.0/16|DE|ripencc|2009-02-24|HETZNER-AS, DE
96.239.17.242|701|96.239.0.0/17|US|arin|2006-12-29|UUNET, US
