# bitcoin dns seeds and whois results
IP Address|ASN|BGP Prefix|CC|Registry|Allocated|AS Name
103.18.124.164|9336|103.18.124.0/22|AU|apnic|2013-03-15|WWWIRES-AU World Without Wires Pty Ltd, AU
103.9.174.70|55905|103.9.174.0/24|JP|apnic|2012-05-18|COMZNET2 TOP CLOUD Inc., JP
104.143.2.195|26863|104.143.2.0/23|US|arin|2020-10-07|GAMESERVERKINGS, US
105.233.37.163|36874|105.233.0.0/17|ZA|afrinic|2012-08-01|Cybersmart, ZA
109.206.168.240|50245|109.206.160.0/19|NL|ripencc|2010-01-22|SERVEREL-AS, NL
119.8.235.40|136907|119.8.232.0/21|SG|apnic|2007-11-23|HWCLOUDS-AS-AP HUAWEI CLOUDS, HK
128.199.6.24|14061|128.199.0.0/20|GB|ripencc|1999-04-12|DIGITALOCEAN-ASN, US
129.21.34.19|4385|129.21.0.0/16|US|arin|1987-07-14|RIT-ASN, US
13.113.116.175|16509|13.112.0.0/14|US|arin|2016-08-09|AMAZON-02, US
13.236.100.67|16509|13.236.0.0/14|US|arin|2019-10-01|AMAZON-02, US
131.188.40.191|680|131.188.0.0/16|DE|ripencc|1989-01-03|DFN Verein zur Foerderung eines Deutschen Forschungsnetzes e.V., DE
133.125.50.180|7684|133.125.0.0/16|JP|apnic|1997-03-01|SAKURA-A SAKURA Internet Inc., JP
134.122.22.241|14061|134.122.16.0/20|US|arin|2019-09-06|DIGITALOCEAN-ASN, US
135.148.37.240|16276|135.148.0.0/17|US|arin|2020-09-28|OVH, FR
138.43.233.57|394147|138.43.233.0/24|US|arin|2019-04-15|MVLINK, US
139.99.68.76|16276|139.99.0.0/17|CA|arin|2016-09-09|OVH, FR
141.136.220.146|13046|141.136.128.0/17|HR|ripencc|2011-06-29|ASN-ISKON HEP, HR
155.4.152.237|8473|155.4.0.0/16|NO|ripencc|1991-10-30|BAHNHOF http://www.bahnhof.net/, SE
157.230.58.223|14061|157.230.48.0/20|US|arin|2018-08-22|DIGITALOCEAN-ASN, US
157.7.211.107|7506|157.7.128.0/17|JP|apnic|1992-08-14|INTERQ GMO Internet,Inc, JP
165.22.235.29|14061|165.22.224.0/20|US|arin|2018-10-16|DIGITALOCEAN-ASN, US
168.119.176.153|24940|168.119.0.0/16|DE|ripencc|1994-04-05|HETZNER-AS, DE
176.9.140.115|24940|176.9.0.0/16|DE|ripencc|2011-05-17|HETZNER-AS, DE
176.9.82.79|24940|176.9.0.0/16|DE|ripencc|2011-05-17|HETZNER-AS, DE
176.99.2.207|197695|176.99.2.0/24|RU|ripencc|2012-06-26|AS-REG, RU
178.128.120.178|14061|178.128.112.0/20|US|ripencc|2010-03-03|DIGITALOCEAN-ASN, US
178.33.232.69|16276|178.32.0.0/15|FR|ripencc|2010-01-19|OVH, FR
178.79.83.93|3212|178.79.64.0/18|SI|ripencc|2010-05-07|TELEMACH Broadband Access & Carrier Services, SI
178.85.97.102|33915|178.85.0.0/16|NL|ripencc|2009-12-19|TNF-AS, NL
18.198.16.76|16509|18.198.0.0/15|US|arin|2019-10-07|AMAZON-02, US
185.16.238.104|199419|185.16.238.0/24|TR|ripencc|2013-01-25|LIMONHOST, TR
185.198.58.47|60117|185.198.58.0/24|AE|ripencc|2017-04-06|HS, AE
185.26.28.173|31415|185.26.28.0/24|RU|ripencc|2013-05-14|SVSCOMM-AS, RU
185.53.88.6|213371|185.53.88.0/24|BZ|ripencc|2014-04-08|SQUITTER-NETWORKS, NL
185.78.209.27|202128|185.78.208.0/22|NO|ripencc|2014-11-25|FJORDANE-IT, NO
188.122.2.55|49743|188.122.0.0/20|PL|ripencc|2009-05-14|FINEMEDIA-WROCLAW, PL
188.127.183.29|15704|188.127.160.0/19|ES|ripencc|2009-07-30|AS15704, ES
193.219.38.56|2847|193.219.32.0/21|LT|ripencc|1994-04-01|LITNET, LT
194.26.29.152|206728|194.26.29.0/24|RU|ripencc|2019-11-20|MEDIALAND-AS, RU
195.123.188.186|197726|195.123.188.0/24|UA|ripencc|1997-04-04|UKRNAMES-AS, UA
195.135.194.8|39149|195.135.194.0/24|RO|ripencc|2009-01-14|STS International SRL, RO
197.155.6.43|37199|197.155.0.0/20|ZA|afrinic|2012-08-10|VANILLA, ZA
199.247.249.188|18988|199.247.240.0/20|CA|arin|2017-06-07|CITYWEST-CORP, CA
2.42.60.157|30722|2.42.48.0/20|IT|ripencc|2010-04-29|VODAFONE-IT-ASN, IT
203.135.149.182|23881|203.135.149.0/24|HK|apnic|2000-07-05|UDOMAIN-AS-AP UDomain Web Hosting Company Ltd, HK
206.124.149.66|18530|206.124.128.0/19|US|arin|1995-09-20|ISOMEDIA-1, US
212.97.48.5|5602|212.97.32.0/19|IT|ripencc|1999-06-29|AS-IRIDEOS-KP, IT
213.80.151.81|15974|213.80.144.0/21|RU|ripencc|2001-03-13|VTT-AS ISP, Saratov, Russia., RU
217.87.223.81|3320|217.80.0.0/12|DE|ripencc|2000-10-26|DTAG Internet service provider operations, DE
221.216.136.255|4808|221.216.128.0/18|CN|apnic|2003-11-19|CHINA169-BJ China Unicom Beijing Province Network, CN
23.108.102.27|59253|23.108.96.0/21|SG|apnic|2013-07-24|LEASEWEB-APAC-SIN-11 Leaseweb Asia Pacific pte. ltd., SG
23.114.194.58|7018|23.112.0.0/12|US|arin|2013-08-09|ATT-INTERNET4, US
23.166.226.34|62707|23.166.226.0/24|US|arin|2020-07-27|GLEXIA-AS, US
24.249.75.69|22773|24.249.72.0/22|US|arin|2003-10-28|ASN-CXA-ALL-CCI-22773-RDC, US
3.83.239.210|14618|3.80.0.0/12|US|arin|2017-12-20|AMAZON-AES, US
34.64.144.84|139070|34.64.0.0/16|US|arin|2018-09-28|GOOGLE-AS-AP Google Asia Pacific Pte. Ltd., SG
34.80.134.68|15169|34.80.0.0/14|US|arin|2018-09-28|GOOGLE, US
35.234.19.151|15169|35.232.0.0/14|US|arin|2017-09-29|GOOGLE, US
35.234.52.44|15169|35.232.0.0/14|US|arin|2017-09-29|GOOGLE, US
43.230.112.91|398968|43.230.112.0/24|HK|apnic|2015-02-05|GROUP-IID-01, US
45.58.103.197|22423|45.58.96.0/20|CA|arin|2015-02-11|ALTIMA-TELECOM, CA
46.30.165.147|25521|46.30.160.0/21|UA|ripencc|2010-09-03|ASN-ASIPN, UA
47.108.78.200|37963|47.108.0.0/16|CN|apnic|1989-01-06|CNNIC-ALIBABA-CN-NET-AP Hangzhou Alibaba Advertising Co.,Ltd., CN
47.196.131.199|5650|47.196.0.0/14|US|arin|2015-08-28|FRONTIER-FRTR, US
47.75.14.219|45102|47.75.0.0/17|US|arin|2016-03-17|CNNIC-ALIBABA-US-NET-AP Alibaba (US) Technology Co., Ltd., CN
47.75.15.2|45102|47.75.0.0/17|US|arin|2016-03-17|CNNIC-ALIBABA-US-NET-AP Alibaba (US) Technology Co., Ltd., CN
5.196.75.231|16276|5.196.0.0/16|FR|ripencc|2012-08-23|OVH, FR
5.45.104.77|197540|5.45.96.0/20|DE|ripencc|2012-05-24|NETCUP-AS netcup GmbH, DE
52.14.39.185|16509|52.14.0.0/16|US|arin|1991-12-19|AMAZON-02, US
52.19.190.151|16509|52.18.0.0/15|US|arin|1991-12-19|AMAZON-02, US
52.221.239.141|16509|52.220.0.0/15|US|arin|2015-09-02|AMAZON-02, US
52.47.76.68|16509|52.47.0.0/16|US|arin|1991-12-19|AMAZON-02, US
54.193.21.65|16509|54.193.0.0/17|US|arin|2014-10-23|AMAZON-02, US
54.253.200.105|16509|54.253.128.0/17|US|arin|2012-03-01|AMAZON-02, US
54.36.172.26|16276|54.36.0.0/16|FR|ripencc|1992-03-17|OVH, FR
62.182.85.52|30860|62.182.85.0/24|UA|ripencc|2008-02-26|YURTEH-AS, UA
66.117.10.85|17139|66.117.0.0/20|US|arin|2006-10-27|NETRANGE, US
67.227.167.130|32244|67.227.128.0/17|US|arin|2008-01-23|LIQUIDWEB, US
68.224.6.232|22773|68.224.0.0/17|US|arin|2003-03-19|ASN-CXA-ALL-CCI-22773-RDC, US
69.59.18.206|397444|69.59.18.0/24|US|arin|2019-04-18|AS-OKI, US
70.226.119.165|7018|70.226.0.0/15|US|arin|2005-03-22|ATT-INTERNET4, US
70.233.181.12|7018|70.233.0.0/16|US|arin|2005-03-22|ATT-INTERNET4, US
70.83.173.66|5769|70.83.128.0/18|CA|arin|2004-07-14|VIDEOTRON, CA
73.243.184.11|7922|73.0.0.0/8|US|arin|2005-04-19|COMCAST-7922, US
74.116.30.12|31845|74.116.28.0/22|US|arin|2009-07-29|ISI COMMUNICATIONS, US
76.86.241.239|20001|76.86.0.0/15|US|arin|2006-12-22|TWC-20001-PACWEST, US
78.199.108.157|12322|78.192.0.0/11|FR|ripencc|2007-03-15|PROXAD, FR
80.100.93.182|3265|80.100.0.0/15|NL|ripencc|2001-07-16|XS4ALL-NL Amsterdam, NL
80.109.75.19|6830|80.109.0.0/16|AT|ripencc|2001-07-19|LIBERTYGLOBAL Liberty Global (formerly UPC Broadband Holding, aka AORTA), NL
82.195.237.253|1836|82.195.224.0/19|CH|ripencc|2003-10-27|GREEN green.ch AG Autonomous System, CH
82.221.128.81|50613|82.221.128.0/19|IS|ripencc|2003-12-11|THORDC-AS, IS
83.36.65.76|3352|83.36.0.0/16|ES|ripencc|2003-12-02|TELEFONICA_DE_ESPANA, ES
84.118.161.63|3209|84.118.0.0/16|NL|ripencc|2004-04-07|VODANET International IP-Backbone of Vodafone, DE
84.40.96.129|43561|84.40.96.0/24|BG|ripencc|2009-10-02|NET1-AS, BG
85.214.78.60|6724|85.214.0.0/15|DE|ripencc|2005-02-24|STRATO STRATO AG, DE
85.229.132.204|2119|85.224.0.0/13|SE|ripencc|2004-12-17|TELENOR-NEXTEL Telenor Norge AS, NO
86.130.229.7|2856|86.128.0.0/12|GB|ripencc|2005-02-07|BT-UK-AS BTnet UK Regional network, GB
87.122.3.10|8881|87.122.0.0/20|DE|ripencc|2005-07-27|VERSATEL, DE
88.212.55.138|42841|88.212.48.0/20|SK|ripencc|2005-12-08|ANTIK, SK
88.98.88.158|13037|88.98.64.0/19|GB|ripencc|2005-08-03|ZEN-AS Zen Internet - UK, GB
89.239.99.102|31608|89.239.96.0/19|PL|ripencc|2007-05-25|GAWEX-AS Plac Wolnosci 11 Szczecinek, PL
89.244.123.85|8881|89.244.120.0/21|DE|ripencc|2006-05-04|VERSATEL, DE
91.106.188.229|198930|91.106.128.0/18|DE|ripencc|2012-06-21|DE-VSM-ASN Peering, DE
91.121.156.211|16276|91.121.0.0/16|FR|ripencc|2006-09-20|OVH, FR
91.138.184.109|3329|91.138.128.0/17|GR|ripencc|2006-10-13|HOL-GR Athens, Greece, GR
93.153.5.234|13036|93.153.0.0/17|CZ|ripencc|2008-05-07|TMOBILE-, CZ
94.103.122.210|24904|94.103.120.0/22|FR|ripencc|2018-08-27|KWAOO K-NET SARL, FR
94.140.68.10|3212|94.140.64.0/19|SI|ripencc|2008-12-02|TELEMACH Broadband Access & Carrier Services, SI
94.17.100.238|12709|94.17.96.0/19|MT|ripencc|2008-06-20|MELITACABLE, MT
94.231.253.18|35224|94.231.253.0/24|NL|ripencc|2009-06-23|PLINQ, NL
95.143.218.179|29124|95.143.208.0/20|RU|ripencc|2009-09-08|ISKRATELECOM-AS SEVEN-SKY, RU
95.216.21.47|24940|95.216.0.0/16|DE|ripencc|2009-02-24|HETZNER-AS, DE
95.217.109.218|24940|95.217.0.0/16|DE|ripencc|2009-02-24|HETZNER-AS, DE
97.89.21.22|20115|97.89.0.0/19|US|arin|2007-03-21|CHARTER-20115, US
97.90.115.171|20115|97.90.112.0/20|US|arin|2007-03-21|CHARTER-20115, US
99.192.41.156|855|99.192.40.0/22|CA|arin|2009-04-17|CANET-ASN-4, CA
