# bitcoin dns seeds and whois results
IP Address|ASN|BGP Prefix|CC|Registry|Allocated|AS Name
104.254.110.227|15011|104.254.104.0/21|US|arin|2015-01-02|JAGUAR-1, US
107.159.93.103|1403|107.159.80.0/20|CA|arin|2013-12-03|EBOX, CA
109.236.94.177|49981|109.236.80.0/20|NL|ripencc|2009-12-04|WORLDSTREAM, NL
109.247.106.144|29695|109.247.0.0/16|NO|ripencc|2010-05-20|ALTIBOX_AS Norway, NO
111.220.71.156|9443|111.220.0.0/16|AU|apnic|2009-07-10|VOCUS-RETAIL-AU Vocus Retail, AU
114.73.192.66|4804|114.73.0.0/16|AU|apnic|2008-05-14|MPX-AS Microplex PTY LTD, AU
128.237.154.145|9|128.237.0.0/16|US|arin|1987-05-06|CMU-ROUTER, US
13.114.100.101|16509|13.112.0.0/14|US|arin|2016-08-09|AMAZON-02, US
13.209.125.83|16509|13.209.0.0/16|US|arin|2019-10-01|AMAZON-02, US
135.125.129.134|16276|135.125.128.0/17|FR|ripencc|2000-10-11|OVH, FR
136.35.54.2|16591|136.35.48.0/20|US|arin|2015-10-06|GOOGLE-FIBER, US
136.55.40.183|16591|136.55.32.0/20|US|arin|2015-10-06|GOOGLE-FIBER, US
143.110.216.20|14061|143.110.208.0/20|US|arin|2020-01-17|DIGITALOCEAN-ASN, US
143.110.238.132|14061|143.110.224.0/20|US|arin|2020-01-17|DIGITALOCEAN-ASN, US
144.76.35.102|24940|144.76.0.0/16|DE|ripencc|1990-11-16|HETZNER-AS, DE
15.188.90.0|16509|15.188.0.0/16|US|arin|2021-01-28|AMAZON-02, US
157.138.20.22|137|157.138.0.0/16|IT|ripencc|2004-04-07|ASGARR Consortium GARR, IT
157.245.181.18|14061|157.245.176.0/20|US|arin|2019-05-09|DIGITALOCEAN-ASN, US
158.110.145.243|137|158.110.0.0/16|IT|ripencc|1992-02-25|ASGARR Consortium GARR, IT
159.65.99.102|14061|159.65.96.0/20|US|arin|2017-10-24|DIGITALOCEAN-ASN, US
159.89.124.195|14061|159.89.112.0/20|US|arin|2017-07-07|DIGITALOCEAN-ASN, US
161.35.197.166|14061|161.35.192.0/20|US|arin|2019-07-30|DIGITALOCEAN-ASN, US
168.119.140.58|24940|168.119.0.0/16|DE|ripencc|1994-04-05|HETZNER-AS, DE
176.9.140.241|24940|176.9.0.0/16|DE|ripencc|2011-05-17|HETZNER-AS, DE
178.236.87.138|42560|178.236.80.0/20|BA|ripencc|2010-06-02|BA-TELEMACH-AS Telemach d.o.o. Sarajevo, BA
178.32.216.133|16276|178.32.0.0/15|FR|ripencc|2010-01-19|OVH, FR
185.156.179.233|59504|185.156.178.0/23|RU|ripencc|2016-06-20|Hosting vpsville.ru, RU
185.51.60.148|42065|185.51.60.0/22|AG|ripencc|2014-03-21|ETELECOM-AS, RU
188.122.2.55|49743|188.122.0.0/20|PL|ripencc|2009-05-14|FINEMEDIA-WROCLAW, PL
188.127.188.23|15704|188.127.160.0/19|ES|ripencc|2009-07-30|AS15704, ES
191.7.172.49|262861|191.7.172.0/22|BR|lacnic|2014-03-07|VIAFIBRA TELECOMUNICACOES LTDA, BR
192.252.213.182|46562|192.252.213.0/24|US|arin|2013-07-03|PERFORMIVE, US
193.42.110.30|60144|193.42.110.0/23|RU|ripencc|2018-10-23|THREE-W-INFRA-AS -- TRANSIT --, NL
194.176.118.175|49352|194.176.118.0/24|RU|ripencc|2006-07-26|LOGOL-AS, RU
194.176.118.247|49352|194.176.118.0/24|RU|ripencc|2006-07-26|LOGOL-AS, RU
195.211.161.124|44341|195.211.161.0/24|RU|ripencc|2009-10-20|SEVONLINE, RU
201.77.114.245|28649|201.77.112.0/20|BR|lacnic|2006-06-07|Desktop Sigmanet Comunicacao Multimidia Ltda, BR
212.14.100.29|15704|212.14.100.0/23|ES|ripencc|1999-08-20|AS15704, ES
212.34.225.118|44395|212.34.224.0/19|AM|ripencc|2009-04-23|ORG-UL31-RIPE, AM
213.178.28.118|29413|213.178.16.0/20|DE|ripencc|1999-12-15|KOMRO-AS Komro Telekommunikations GmbH, DE
24.217.25.147|20115|24.217.0.0/16|US|arin|1999-02-22|CHARTER-20115, US
3.104.224.80|16509|3.104.0.0/14|US|arin|2017-12-20|AMAZON-02, US
3.127.219.132|16509|3.124.0.0/14|US|arin|2017-12-20|AMAZON-02, US
31.171.251.35|50837|31.171.251.0/24|CH|ripencc|2011-04-04|CLOUDSIGMA-AS, CH
35.183.49.55|16509|35.182.0.0/15|US|arin|2016-08-09|AMAZON-02, US
35.209.182.232|15169|35.208.0.0/15|US|arin|2017-09-29|GOOGLE, US
35.220.191.191|15169|35.220.0.0/14|US|arin|2017-09-29|GOOGLE, US
35.231.113.167|15169|35.228.0.0/14|US|arin|2017-09-29|GOOGLE, US
37.187.103.54|16276|37.187.0.0/16|FR|ripencc|2012-03-20|OVH, FR
37.61.219.34|20773|37.61.208.0/20|DE|ripencc|2012-01-23|GODADDY, DE
38.102.69.70|40470|38.102.69.0/24|US|arin|1991-04-16|PROTECTED-, CA
40.78.19.149|8075|40.76.0.0/14|US|arin|2015-02-23|MICROSOFT-CORP-MSN-AS-BLOCK, US
45.85.48.58|208016|45.85.48.0/22|DE|ripencc|2019-06-04|TINC-AS, DE
5.39.122.20|16276|5.39.0.0/17|FR|ripencc|2012-05-15|OVH, FR
51.91.16.125|16276|51.91.0.0/16|FR|ripencc|1993-09-01|OVH, FR
64.227.10.111|14061|64.227.0.0/20|US|arin|2019-08-14|DIGITALOCEAN-ASN, US
64.79.104.40|53264|64.79.96.0/20|US|arin|2010-03-05|NCHC-603, US
73.83.103.79|7922|73.0.0.0/8|US|arin|2005-04-19|COMCAST-7922, US
77.119.229.106|25255|77.116.0.0/14|AT|ripencc|2007-01-10|H3G-AUSTRIA-AS ==) TELE2 AUSTRIA (==, AT
80.5.140.25|5089|80.5.0.0/16|GB|ripencc|2001-04-25|NTL, GB
85.2.221.241|3303|85.2.0.0/15|CH|ripencc|2005-01-25|SWISSCOM Swisscom (Switzerland) Ltd, CH
85.201.128.106|12392|85.201.128.0/20|BE|ripencc|2005-01-11|ASBRUTELE VOO, BE
85.93.96.18|34315|85.93.96.0/19|CZ|ripencc|2004-12-09|MAXNET-AS, CZ
88.130.222.16|8881|88.130.216.0/21|DE|ripencc|2005-10-17|VERSATEL, DE
89.186.218.17|39441|89.186.216.0/21|DE|ripencc|2012-09-11|HABNET, DE
90.90.48.242|3215|90.90.0.0/16|FR|ripencc|2006-03-02|France Telecom - Orange, FR
91.239.130.62|62240|91.239.130.0/24|GB|ripencc|2019-11-12|CLOUVIDER Clouvider - Global ASN, GB
99.233.162.27|812|99.233.128.0/18|CA|arin|2007-03-12|ROGERS-COMMUNICATIONS, CA
