# bitcoin dns seeds and whois results
IP Address|ASN|BGP Prefix|CC|Registry|Allocated|AS Name
101.173.93.122|1221|101.160.0.0/11|AU|apnic|2010-12-23|ASN-TELSTRA Telstra Corporation Ltd, AU
103.14.244.190|24482|103.14.244.0/23|SG|apnic|2012-08-13|SGGS-AS-AP SG.GS, SG
108.248.87.92|7018|108.192.0.0/10|US|arin|2011-01-12|ATT-INTERNET4, US
124.170.214.99|7545|124.170.208.0/20|AU|apnic|2007-06-15|TPG-INTERNET-AP TPG Telecom Limited, AU
128.237.154.145|9|128.237.0.0/16|US|arin|1987-05-06|CMU-ROUTER, US
129.13.189.206|34878|129.13.0.0/16|DE|ripencc|1987-06-29|KIT Karlsruhe Institute of Technology, DE
13.48.45.12|16509|13.48.0.0/15|US|arin|2020-08-05|AMAZON-02, US
135.181.109.135|24940|135.181.0.0/16|DE|ripencc|1996-04-30|HETZNER-AS, DE
136.243.60.74|24940|136.243.0.0/16|DE|ripencc|2004-04-14|HETZNER-AS, DE
137.59.187.126|18106|137.59.184.0/22|HK|apnic|2016-02-08|VIEWQWEST-SG-AP Viewqwest Pte Ltd, SG
139.219.15.1|58593|139.219.0.0/17|CN|apnic|2011-03-08|BLUECLOUD Shanghai Blue Cloud Technology Co.,Ltd, CN
139.59.247.235|14061|139.59.240.0/20|SG|apnic|1990-06-27|DIGITALOCEAN-ASN, US
14.200.116.32|7545|14.200.116.0/24|AU|apnic|2010-09-14|TPG-INTERNET-AP TPG Telecom Limited, AU
140.112.42.98|17716|140.112.0.0/16|TW|apnic|1990-03-24|NTU-TW National Taiwan University, TW
141.136.241.102|13046|141.136.128.0/17|HR|ripencc|2011-06-29|ASN-ISKON HEP, HR
142.202.241.29|14315|142.202.240.0/22|US|arin|2019-12-27|1GSERVERS, US
144.76.19.35|24940|144.76.0.0/16|DE|ripencc|1990-11-16|HETZNER-AS, DE
147.83.72.199|13041|147.83.0.0/16|ES|ripencc|1991-07-16|CESCA-AC, ES
156.255.213.198|138195|156.255.213.0/24|SC|afrinic|2015-12-22|MOACKCOLTD-AS-AP MOACK.Co.LTD, KR
159.89.98.96|14061|159.89.96.0/20|US|arin|2017-07-07|DIGITALOCEAN-ASN, US
162.218.218.163|29844|162.218.218.0/24|US|arin|2013-08-07|SENAWAVE, US
165.16.172.91|37049|165.16.160.0/19|ZA|afrinic|2016-10-26|SADV, ZA
165.227.175.240|14061|165.227.160.0/20|US|arin|2016-10-06|DIGITALOCEAN-ASN, US
172.93.101.73|23470|172.93.101.0/24|US|arin|2015-06-03|RELIABLESITE, US
173.182.141.174|852|173.182.128.0/18|CA|arin|2009-06-09|ASN852, CA
176.118.164.10|43830|176.118.164.0/24|RU|ripencc|2018-10-15|DIGITALENERGY-AS, RU
178.128.206.59|14061|178.128.192.0/20|US|ripencc|2010-03-03|DIGITALOCEAN-ASN, US
178.236.87.138|42560|178.236.80.0/20|BA|ripencc|2010-06-02|BA-TELEMACH-AS Telemach d.o.o. Sarajevo, BA
185.158.114.184|44812|185.158.114.0/24|RU|ripencc|2016-07-05|IPSERVER-RU-NET Fiord, RU
185.25.224.202|60785|185.25.224.0/22|CH|ripencc|2013-05-10|ALSENET, CH
185.75.116.24|48926|185.75.116.0/22|CZ|ripencc|2014-10-31|PE3NY-AS, CZ
187.189.153.165|22884|187.189.153.0/24|MX|lacnic|2011-12-08|TOTAL PLAY TELECOMUNICACIONES SA DE CV, MX
188.241.48.201|16192|188.241.48.0/24|RO|ripencc|2009-06-23|ROM-ELECTRONIC-AS, RO
188.94.42.24|49375|188.94.40.0/21|GB|ripencc|2009-05-28|AS-TRUNKNETWORKS Trunk Networks - www.trunknetworks.com, GB
190.164.232.254|22047|190.164.224.0/19|CL|lacnic|2007-10-30|VTR BANDA ANCHA S.A., CL
192.95.33.106|16276|192.95.0.0/18|CA|arin|2012-12-07|OVH, FR
193.169.240.119|39681|193.169.240.0/23|UA|ripencc|2009-08-11|MYHOSTUA-AS, UA
193.222.130.14|29208|193.222.130.0/24|CZ|ripencc|2005-08-17|DIALTELECOM-AS Dial Telecom a.s., CZ
193.33.151.21|42729|193.33.150.0/23|AT|ripencc|2007-04-03|FFGRAZ-NET Wireless community ad-hoc mesh network, AT
193.40.103.45|3221|193.40.0.0/16|EE|ripencc|1995-03-15|EENET-AS, EE
193.46.2.17|49795|193.46.2.0/24|RU|ripencc|2012-05-03|ITSERVISELLCAS, RU
195.204.173.39|2116|195.204.0.0/16|NO|ripencc|1996-07-10|ASN-CATCHCOM, NO
202.186.69.84|9930|202.186.0.0/15|MY|apnic|1996-10-29|TTNET-MY TIME dotCom Berhad No. 14, Jalan Majistret U1/26 Hicom Glenmarie Industrial Park 40150 Shah Alam Selangor, Malaysia, MY
202.239.42.192|4694|202.239.32.0/19|JP|apnic|1995-03-29|IDCF IDC Frontier Inc., JP
203.218.175.175|4760|203.218.160.0/19|HK|apnic|2001-01-25|HKTIMS-AP HKT Limited, HK
207.115.102.98|11478|207.115.96.0/20|CA|arin|2001-04-06|OPENFACE, CA
212.227.253.11|8560|212.227.0.0/16|DE|ripencc|1998-09-10|IONOS-AS This is the joint network for IONOS, Fasthosts, Arsys, 1&1 Mail and Media and 1&1 Telecom. Formerly known as 1&1 Internet SE., DE
24.177.106.85|20115|24.177.96.0/20|US|arin|2003-10-28|CHARTER-20115, US
3.120.148.145|16509|3.120.0.0/14|US|arin|2017-12-20|AMAZON-02, US
3.17.213.129|16509|3.16.0.0/14|US|arin|2017-12-20|AMAZON-02, US
3.239.4.20|14618|3.224.0.0/12|US|arin|2018-06-25|AMAZON-AES, US
3.250.188.245|16509|3.248.0.0/13|US|arin|2018-06-25|AMAZON-02, US
3.83.239.210|14618|3.80.0.0/12|US|arin|2017-12-20|AMAZON-AES, US
3.87.158.26|14618|3.80.0.0/12|US|arin|2017-12-20|AMAZON-AES, US
31.171.251.35|50837|31.171.251.0/24|CH|ripencc|2011-04-04|CLOUDSIGMA-AS, CH
31.21.8.32|50266|31.21.0.0/16|NL|ripencc|2011-03-25|TMOBILE-THUIS, NL
34.101.247.157|139190|34.101.0.0/16|US|arin|2018-09-28|GOOGLE-AS-AP Google Asia Pacific Pte. Ltd., SG
34.235.144.59|14618|34.224.0.0/12|US|arin|2016-09-12|AMAZON-AES, US
34.86.185.91|15169|34.84.0.0/14|US|arin|2018-09-28|GOOGLE, US
34.93.152.123|15169|34.92.0.0/14|US|arin|2018-09-28|GOOGLE, US
35.181.9.180|16509|35.181.0.0/16|US|arin|2016-08-09|AMAZON-02, US
35.200.231.26|15169|35.200.0.0/14|US|arin|2017-03-21|GOOGLE, US
35.221.158.174|15169|35.220.0.0/14|US|arin|2017-09-29|GOOGLE, US
35.235.89.230|15169|35.232.0.0/14|US|arin|2017-09-29|GOOGLE, US
35.245.173.118|15169|35.244.0.0/14|US|arin|2017-09-29|GOOGLE, US
42.194.136.58|45090|42.194.128.0/18|CN|apnic|2011-03-17|CNNIC-TENCENT-NET-AP Shenzhen Tencent Computer Systems Company Limited, CN
45.145.125.90|62468|45.145.125.0/24|HK|ripencc|2019-08-26|VPSQUAN, US
45.44.244.58|54198|45.44.244.0/22|CA|arin|2015-02-09|VIANET, CA
46.175.27.125|197460|46.175.27.0/24|RU|ripencc|2011-02-01|ZENCOM-AS, RU
46.200.80.157|6849|46.200.80.0/23|UA|ripencc|2011-01-14|UKRTELNET, UA
46.210.5.106|1680|46.210.0.0/16|IL|ripencc|2010-12-15|NV-ASN CELLCOM ltd., IL
46.4.218.125|24940|46.4.0.0/16|DE|ripencc|2010-08-19|HETZNER-AS, DE
46.4.237.233|24940|46.4.0.0/16|DE|ripencc|2010-08-19|HETZNER-AS, DE
5.188.56.53|49505|5.188.56.0/22|RU|ripencc|2012-08-09|SELECTEL, RU
5.61.50.213|58061|5.61.48.0/22|GB|ripencc|2012-06-07|SCALAXY-AS, NL
5.9.11.198|24940|5.9.0.0/16|DE|ripencc|2012-04-25|HETZNER-AS, DE
5.9.44.82|24940|5.9.0.0/16|DE|ripencc|2012-04-25|HETZNER-AS, DE
51.158.167.213|12876|51.158.128.0/17|FR|ripencc|1993-09-01|Online SAS, FR
51.159.94.210|12876|51.158.0.0/15|FR|ripencc|1993-09-01|Online SAS, FR
51.210.34.62|16276|51.210.0.0/16|FR|ripencc|1993-09-01|OVH, FR
51.91.197.151|16276|51.91.0.0/16|FR|ripencc|1993-09-01|OVH, FR
52.57.201.88|16509|52.57.0.0/16|US|arin|1991-12-19|AMAZON-02, US
52.59.216.190|16509|52.58.0.0/15|US|arin|1991-12-19|AMAZON-02, US
54.249.206.111|16509|54.249.128.0/17|US|arin|2012-03-01|AMAZON-02, US
60.240.209.213|7545|60.240.209.0/24|AU|apnic|2004-07-30|TPG-INTERNET-AP TPG Telecom Limited, AU
65.27.134.105|10796|65.27.128.0/17|US|arin|2000-08-22|TWC-10796-MIDWEST, US
66.42.163.222|6181|66.42.128.0/18|US|arin|2003-05-28|FUSE-NET, US
66.96.199.249|56300|66.96.199.0/24|SG|apnic|2001-11-01|MYREPUBLIC-SG MyRepublic Ltd., SG
68.142.33.36|12282|68.142.32.0/19|US|arin|2006-01-12|GMA, US
69.64.33.71|30083|69.64.32.0/19|US|arin|2003-07-30|AS-30083-GO-DADDY-COM-LLC, US
75.103.209.147|19751|75.103.192.0/19|US|arin|2008-02-19|CCRTC, US
75.110.141.18|19108|75.110.0.0/16|US|arin|2006-07-18|SUDDENLINK-COMMUNICATIONS, US
76.11.60.155|32233|76.11.48.0/20|CA|arin|2007-02-23|PERSONA, CA
77.70.16.245|35141|77.70.16.0/24|BG|ripencc|2007-02-21|MEGALAN, BG
78.35.120.245|8422|78.34.0.0/15|DE|ripencc|2007-03-08|NETCOLOGNE, DE
79.101.1.25|8400|79.101.0.0/16|RS|ripencc|2007-11-12|TELEKOM-AS, RS
8.129.83.82|37963|8.129.0.0/17|SG|apnic|1992-12-01|CNNIC-ALIBABA-CN-NET-AP Hangzhou Alibaba Advertising Co.,Ltd., CN
8.209.95.59|45102|8.209.64.0/19|SG|apnic|1992-12-01|CNNIC-ALIBABA-US-NET-AP Alibaba (US) Technology Co., Ltd., CN
8.210.177.89|45102|8.210.128.0/17|SG|apnic|1992-12-01|CNNIC-ALIBABA-US-NET-AP Alibaba (US) Technology Co., Ltd., CN
8.210.52.253|45102|8.210.0.0/17|SG|apnic|1992-12-01|CNNIC-ALIBABA-US-NET-AP Alibaba (US) Technology Co., Ltd., CN
8.210.92.32|45102|8.210.0.0/17|SG|apnic|1992-12-01|CNNIC-ALIBABA-US-NET-AP Alibaba (US) Technology Co., Ltd., CN
80.241.217.54|51167|80.241.216.0/23|DE|ripencc|2011-02-14|CONTABO, DE
80.77.132.154|20963|80.77.128.0/20|FO|ripencc|2001-07-02|NEMAFAROE-AS, FO
80.89.156.216|21127|80.89.156.0/24|RU|ripencc|2001-10-02|ZSTTKAS Novosibirsk, Russia, RU
82.148.25.101|49505|82.148.24.0/22|RU|ripencc|2003-07-10|SELECTEL, RU
82.221.128.31|50613|82.221.128.0/19|IS|ripencc|2003-12-11|THORDC-AS, IS
82.73.53.176|33915|82.72.0.0/15|NL|ripencc|2003-07-04|TNF-AS, NL
83.253.241.45|39651|83.248.0.0/13|SE|ripencc|2004-03-04|COMHEM-SWEDEN, SE
85.170.233.95|15557|85.168.0.0/14|FR|ripencc|2004-12-21|LDCOMNET, FR
86.52.44.102|197288|86.52.0.0/16|DK|ripencc|2005-05-04|STOFANET, DK
86.89.77.44|1136|86.80.0.0/12|NL|ripencc|2005-03-23|KPN KPN National, NL
87.74.154.70|25310|87.74.0.0/15|GB|ripencc|2005-05-11|ASN-CWACCESS, GB
88.210.15.24|212702|88.210.0.0/20|RU|ripencc|2005-11-24|KMSKOMAS, RU
88.66.62.115|3209|88.64.0.0/12|DE|ripencc|2005-08-15|VODANET International IP-Backbone of Vodafone, DE
88.99.149.100|24940|88.99.0.0/16|DE|ripencc|2005-08-03|HETZNER-AS, DE
89.142.143.223|5603|89.142.128.0/18|SI|ripencc|2006-03-03|SIOL-NET Telekom Slovenije d.d., SI
92.206.209.103|16202|92.206.0.0/16|DE|ripencc|2007-10-17|TELECOLUMBUS-AS, DE
97.79.201.154|11427|97.79.128.0/17|US|arin|2007-09-11|TWC-11427-TEXAS, US
