# bitcoin dns seeds and whois results
IP Address|ASN|BGP Prefix|CC|Registry|Allocated|AS Name
103.37.205.47|56068|103.37.204.0/22|NZ|apnic|2014-08-27|LIGHTSPEED-TECHNOLOGY-AS-AP Lightspeed Technology Group Limited, NZ
105.233.37.163|36874|105.233.0.0/17|ZA|afrinic|2012-08-01|Cybersmart, ZA
109.201.142.116|43350|109.201.128.0/19|NL|ripencc|2010-02-12|NFORCE, NL
111.196.181.185|4808|111.196.128.0/18|CN|apnic|2009-07-01|CHINA169-BJ China Unicom Beijing Province Network, CN
111.90.140.46|45839|111.90.140.0/24|MY|apnic|2009-06-17|SHINJIRU-MY-AS-AP Shinjiru Technology Sdn Bhd, MY
112.118.164.36|4760|112.118.160.0/19|HK|apnic|2009-01-22|HKTIMS-AP HKT Limited, HK
13.231.223.46|16509|13.230.0.0/15|US|arin|2019-10-01|AMAZON-02, US
134.122.22.241|14061|134.122.16.0/20|US|arin|2019-09-06|DIGITALOCEAN-ASN, US
14.137.7.149|55850|14.137.0.0/19|NZ|apnic|2010-09-09|TRUSTPOWERLTD-AS-AP TrustPower Ltd, NZ
158.181.226.33|41750|158.181.224.0/20|KG|ripencc|2011-11-10|AS-MEGALINE-, KG
159.196.228.157|4764|159.196.228.0/22|AU|apnic|1992-05-26|WIDEBAND-AS-AP Aussie Broadband, AU
159.224.189.250|13188|159.224.189.0/24|UA|ripencc|2011-09-20|TRIOLAN, UA
160.16.110.6|9370|160.16.0.0/17|JP|apnic|1992-06-10|SAKURA-B SAKURA Internet Inc., JP
167.57.100.84|6057|167.57.96.0/20|UY|lacnic|2014-03-31|Administracion Nacional de Telecomunicaciones, UY
168.119.176.220|24940|168.119.0.0/16|DE|ripencc|1994-04-05|HETZNER-AS, DE
173.11.122.57|7922|173.8.0.0/13|US|arin|2008-05-05|COMCAST-7922, US
173.255.209.39|63949|173.255.209.0/24|US|arin|2010-08-27|LINODE-AP Linode, LLC, US
174.138.58.231|14061|174.138.48.0/20|US|arin|2016-04-12|DIGITALOCEAN-ASN, US
177.81.228.212|28573|177.81.0.0/16|BR|lacnic|2011-08-30|CLARO S.A., BR
178.236.87.138|42560|178.236.80.0/20|BA|ripencc|2010-06-02|BA-TELEMACH-AS Telemach d.o.o. Sarajevo, BA
18.192.62.125|16509|18.192.0.0/15|US|arin|2019-10-07|AMAZON-02, US
18.196.240.197|16509|18.196.0.0/15|US|arin|2019-10-07|AMAZON-02, US
185.132.178.106|49981|185.132.176.0/22|NL|ripencc|2015-12-23|WORLDSTREAM, NL
185.251.161.54|24904|185.251.160.0/22|FR|ripencc|2018-03-23|KWAOO K-NET SARL, FR
185.75.117.124|48926|185.75.116.0/22|CZ|ripencc|2014-10-31|PE3NY-AS, CZ
192.64.113.167|22612|192.64.113.0/24|US|arin|2012-12-17|NAMECHEAP-NET, US
193.40.103.45|3221|193.40.0.0/16|EE|ripencc|1995-03-15|EENET-AS, EE
2.85.253.188|6799|2.85.0.0/16|GR|ripencc|2010-05-12|OTENET-GR Athens - Greece, GR
207.55.53.96|12044|207.55.48.0/20|US|arin|1996-02-22|WVINET, US
217.72.4.157|50299|217.72.0.0/21|RU|ripencc|2000-11-23|TYFON-AS, RU
3.10.70.38|16509|3.8.0.0/14|US|arin|2017-12-20|AMAZON-02, US
3.123.19.130|16509|3.120.0.0/14|US|arin|2017-12-20|AMAZON-02, US
3.123.28.195|16509|3.120.0.0/14|US|arin|2017-12-20|AMAZON-02, US
3.219.41.205|14618|3.208.0.0/12|US|arin|2018-06-25|AMAZON-AES, US
3.250.35.22|16509|3.248.0.0/13|US|arin|2018-06-25|AMAZON-02, US
3.35.168.137|16509|3.34.0.0/15|US|arin|2017-12-20|AMAZON-02, US
3.83.239.210|14618|3.80.0.0/12|US|arin|2017-12-20|AMAZON-AES, US
34.126.107.179|15169|34.124.0.0/14|US|arin|2018-09-28|GOOGLE, US
34.64.211.116|139070|34.64.0.0/16|US|arin|2018-09-28|GOOGLE-AS-AP Google Asia Pacific Pte. Ltd., SG
34.65.36.169|15169|34.64.0.0/14|US|arin|2018-09-28|GOOGLE, US
34.89.132.163|15169|34.88.0.0/14|US|arin|2018-09-28|GOOGLE, US
34.91.41.138|15169|34.88.0.0/14|US|arin|2018-09-28|GOOGLE, US
35.245.230.216|15169|35.244.0.0/14|US|arin|2017-09-29|GOOGLE, US
35.247.228.106|15169|35.244.0.0/14|US|arin|2017-09-29|GOOGLE, US
45.15.61.233|24904|45.15.60.0/22|FR|ripencc|2019-05-10|KWAOO K-NET SARL, FR
46.101.138.202|14061|46.101.128.0/17|US|ripencc|2010-06-24|DIGITALOCEAN-ASN, US
5.133.65.82|15440|5.133.65.0/24|LT|ripencc|2018-11-09|BALTNETA Customers AS, LT
5.45.104.77|197540|5.45.96.0/20|DE|ripencc|2012-05-24|NETCUP-AS netcup GmbH, DE
54.187.117.98|16509|54.186.0.0/15|US|arin|2014-10-23|AMAZON-02, US
54.254.181.28|16509|54.254.128.0/17|US|arin|2012-03-01|AMAZON-02, US
69.173.184.128|30041|69.173.184.0/24|US|arin|2020-08-31|RACE, US
71.72.140.136|10796|71.72.0.0/15|US|arin|2005-05-16|TWC-10796-MIDWEST, US
75.110.141.18|19108|75.110.0.0/16|US|arin|2006-07-18|SUDDENLINK-COMMUNICATIONS, US
75.130.218.151|20115|75.130.208.0/20|US|arin|2006-07-17|CHARTER-20115, US
77.95.167.127|39449|77.95.160.0/21|IE|ripencc|2007-06-12|FASTCOM-AS, IE
78.129.221.31|20860|78.129.128.0/17|GB|ripencc|2007-04-18|IOMART-AS, GB
80.77.53.194|49129|80.77.48.0/20|GE|ripencc|2009-04-07|CGC-AS, GE
82.197.218.174|25596|82.197.192.0/19|NL|ripencc|2003-11-11|CAMBRIUM-AS, NL
83.221.75.201|16202|83.221.64.0/19|DE|ripencc|2004-04-13|TELECOLUMBUS-AS, DE
84.237.171.180|12578|84.237.128.0/17|LV|ripencc|2004-07-23|APOLLO-AS Latvia, LV
88.98.235.134|56478|88.98.192.0/18|GB|ripencc|2005-08-03|BCUBE-AS, GB
91.121.133.211|16276|91.121.0.0/16|FR|ripencc|2006-09-20|OVH, FR
91.155.2.97|719|91.152.0.0/13|FI|ripencc|2006-09-06|ELISA-AS Helsinki, Finland, FI
92.249.143.44|20845|92.249.128.0/17|HU|ripencc|2007-11-15|DIGICABLE, HU
94.154.159.99|62240|94.154.159.0/24|GB|ripencc|2018-11-22|CLOUVIDER Clouvider - Global ASN, GB
94.19.6.199|35807|94.19.0.0/16|RU|ripencc|2008-07-03|SKYNET-SPB-AS, RU
94.62.137.251|12353|94.60.0.0/14|PT|ripencc|2008-06-23|VODAFONE-PT Vodafone Portugal, PT
95.216.124.20|24940|95.216.0.0/16|DE|ripencc|2009-02-24|HETZNER-AS, DE
95.84.192.249|42610|95.84.192.0/18|RU|ripencc|2009-06-15|NCNET-AS, RU
