# bitcoin dns seeds and whois results
IP Address|ASN|BGP Prefix|CC|Registry|Allocated|AS Name
101.32.19.184|132203|101.32.16.0/20|SG|apnic|2010-12-14|TENCENT-NET-AP-CN Tencent Building, Kejizhongyi Avenue, CN
103.109.101.216|206264|103.109.100.0/22|HK|apnic|2018-02-12|AMARUTU-TECHNOLOGY, SC
103.199.18.37|63734|103.199.16.0/22|VN|apnic|2015-10-22|GREENCLOUDVPS-AS-VN 365 Online technology joint stock company, VN
104.148.200.37|6128|104.148.128.0/17|US|arin|2014-07-15|CABLE-NET-1, US
104.152.187.114|31863|104.152.184.0/21|US|arin|2014-07-18|DACEN-2, US
108.201.79.41|7018|108.192.0.0/10|US|arin|2011-01-12|ATT-INTERNET4, US
109.194.27.222|51645|109.194.16.0/20|RU|ripencc|2009-10-27|IRKUTSK-AS, RU
109.254.56.32|20590|109.254.32.0/19|UA|ripencc|2009-12-10|DEC-AS, UA
110.133.240.208|9824|110.133.0.0/16|JP|apnic|2009-04-16|JTCL-JP-AS Jupiter Telecommunication Co. Ltd, JP
128.237.154.145|9|128.237.0.0/16|US|arin|1987-05-06|CMU-ROUTER, US
129.192.83.191|29518|129.192.80.0/22|US|arin|1994-11-15|BREDBAND2, SE
13.229.203.245|16509|13.228.0.0/15|US|arin|2019-10-01|AMAZON-02, US
13.233.82.105|16509|13.232.0.0/14|US|arin|2019-10-01|AMAZON-02, US
131.188.40.191|680|131.188.0.0/16|DE|ripencc|1989-01-03|DFN Verein zur Foerderung eines Deutschen Forschungsnetzes e.V., DE
139.226.35.68|17621|139.226.32.0/19|CN|apnic|2011-03-09|CNCGROUP-SH China Unicom Shanghai network, CN
144.76.156.185|24940|144.76.0.0/16|DE|ripencc|1990-11-16|HETZNER-AS, DE
148.74.194.80|6128|148.74.0.0/15|US|arin|2015-05-14|CABLE-NET-1, US
151.226.56.87|5607|151.224.0.0/13|GB|ripencc|2012-08-09|BSKYB-BROADBAND-AS, GB
153.92.93.114|41998|153.92.80.0/20|DE|ripencc|1991-09-23|NETCOMBW-AS, DE
162.154.207.147|10796|162.152.0.0/14|US|arin|2012-10-10|TWC-10796-MIDWEST, US
167.99.179.226|14061|167.99.176.0/20|US|arin|2017-11-10|DIGITALOCEAN-ASN, US
168.119.176.220|24940|168.119.0.0/16|DE|ripencc|1994-04-05|HETZNER-AS, DE
168.235.90.188|3842|168.235.88.0/22|US|arin|2014-06-26|RAMNODE, US
173.249.59.148|51167|173.249.58.0/23|DE|ripencc|2010-05-26|CONTABO, DE
174.7.29.42|6327|174.7.28.0/22|CA|arin|2008-11-19|SHAW, CA
176.44.48.99|25019|176.44.48.0/20|SA|ripencc|2011-05-23|SAUDINETSTC-AS, SA
178.236.87.138|42560|178.236.80.0/20|BA|ripencc|2010-06-02|BA-TELEMACH-AS Telemach d.o.o. Sarajevo, BA
18.220.157.153|16509|18.220.0.0/14|US|arin|2019-10-07|AMAZON-02, US
18.229.148.50|16509|18.229.0.0/16|US|arin|2019-10-07|AMAZON-02, US
180.233.106.140|10010|180.233.106.0/24|JP|apnic|2009-10-22|TOKAI TOKAI Communications Corporation, JP
182.55.245.25|4657|182.55.245.0/24|SG|apnic|2010-03-01|STARHUB-INTERNET StarHub Ltd, SG
184.152.170.168|12271|184.152.0.0/16|US|arin|2010-06-15|TWC-12271-NYC, US
185.152.228.83|197784|185.152.228.0/22|SE|ripencc|2016-05-20|EDGEIP-AS, SE
185.159.80.204|14576|185.159.80.0/24|NL|ripencc|2016-07-12|HOSTING-SOLUTIONS, US
185.78.209.28|202128|185.78.208.0/22|NO|ripencc|2014-11-25|FJORDANE-IT, NO
188.65.212.138|6719|188.65.208.0/21|RU|ripencc|2009-08-18|KNOPP-AS, RU
192.186.131.26|55286|192.186.128.0/20|CA|arin|2013-08-02|SERVER-MANIA, CA
192.65.170.15|22581|192.65.170.0/24|VI|arin|2014-11-26|ACE-STX, VI
193.198.34.24|2108|193.198.0.0/16|HR|ripencc|1993-09-01|CARNET-AS J.Marohnica 5, 10000 Zagreb, HR
193.25.103.5|15600|193.25.102.0/23|CH|ripencc|2004-03-22|FINECOM Quickline AG, CH
194.106.127.43|3249|194.106.96.0/19|EE|ripencc|1995-12-04|ESTPAK, EE
195.142.251.218|34984|195.142.251.0/24|TR|ripencc|1996-08-27|TELLCOM-AS, TR
195.211.161.124|44341|195.211.161.0/24|RU|ripencc|2009-10-20|SEVONLINE, RU
199.247.249.188|18988|199.247.240.0/20|CA|arin|2017-06-07|CITYWEST-CORP, CA
2.56.99.194|197540|2.56.96.0/22|DE|ripencc|2019-03-13|NETCUP-AS netcup GmbH, DE
2.96.22.155|13285|2.96.0.0/15|GB|ripencc|2010-04-21|OPALTELECOM-AS TalkTalk Communications Limited, GB
204.13.239.221|55106|204.13.232.0/21|US|arin|2011-04-19|DATACATE-AS1, US
206.189.222.161|14061|206.189.208.0/20|US|arin|1995-11-15|DIGITALOCEAN-ASN, US
206.252.192.13|8002|206.252.192.0/19|US|arin|1996-08-12|STEALTH, US
207.180.244.165|51167|207.180.244.0/23|DE|ripencc|1996-08-21|CONTABO, DE
207.253.27.72|395075|207.253.27.0/24|CA|arin|1996-11-22|AS-COPR, CA
209.202.192.15|395965|209.202.192.0/24|CA|arin|2018-07-11|CARRY-TELECOM, CA
209.222.101.217|23470|209.222.101.0/24|US|arin|2015-10-02|RELIABLESITE, US
212.89.173.216|49864|212.89.160.0/19|AT|ripencc|2009-09-28|ECSNET-AS, AT
213.148.199.23|16030|213.148.199.0/24|ES|ripencc|2008-01-31|ALTECOM, ES
213.219.144.164|9031|213.219.128.0/18|BE|ripencc|2000-08-30|EDPNET, BE
216.107.238.165|11524|216.107.224.0/20|US|arin|2000-07-25|SEGNET, US
216.18.178.238|29789|216.18.160.0/19|US|arin|2009-08-31|REFLECTED, US
217.15.178.7|25534|217.15.176.0/22|KZ|ripencc|2002-12-24|INTELSOFT-AS, KZ
217.195.164.4|29321|217.195.160.0/20|CZ|ripencc|2001-04-24|CENTRONETAS Czech Republic, CZ
24.125.46.75|7922|24.125.0.0/16|US|arin|2001-09-10|COMCAST-7922, US
24.251.189.17|22773|24.251.0.0/16|US|arin|2003-10-28|ASN-CXA-ALL-CCI-22773-RDC, US
3.85.5.222|14618|3.80.0.0/12|US|arin|2017-12-20|AMAZON-AES, US
3.96.190.111|16509|3.96.0.0/15|US|arin|2017-12-20|AMAZON-02, US
31.25.98.16|48635|31.25.96.0/21|NL|ripencc|2011-03-03|PCEXTREME-, NL
34.203.197.21|14618|34.192.0.0/12|US|arin|2016-09-12|AMAZON-AES, US
34.203.199.245|14618|34.192.0.0/12|US|arin|2016-09-12|AMAZON-AES, US
34.64.149.89|139070|34.64.0.0/16|US|arin|2018-09-28|GOOGLE-AS-AP Google Asia Pacific Pte. Ltd., SG
34.65.179.100|15169|34.64.0.0/14|US|arin|2018-09-28|GOOGLE, US
34.69.253.72|15169|34.68.0.0/14|US|arin|2018-09-28|GOOGLE, US
37.57.161.102|13188|37.57.161.0/24|UA|ripencc|2012-01-13|TRIOLAN, UA
38.65.119.26|55140|38.65.119.0/24|US|arin|1991-04-16|SHO-ME-TECHNOLOGIES, US
44.234.33.234|16509|44.224.0.0/11|US|arin|2019-07-18|AMAZON-02, US
45.155.157.239|206238|45.155.156.0/23|AE|ripencc|2019-09-18|FREEDOMINTERNET, NL
46.128.41.9|35244|46.128.0.0/16|DE|ripencc|2010-09-30|KMS-DE_AS, DE
46.166.173.39|16125|46.166.168.0/21|LT|ripencc|2010-12-16|CHERRYSERVERS1-AS, LT
46.173.211.21|47196|46.173.211.0/24|RU|ripencc|2011-02-07|GARANT-PARK-INTERNET, RU
46.182.230.59|3212|46.182.224.0/21|SI|ripencc|2010-11-29|TELEMACH Broadband Access & Carrier Services, SI
47.196.69.134|5650|47.196.0.0/14|US|arin|2015-08-28|FRONTIER-FRTR, US
47.89.242.60|45102|47.89.240.0/22|US|arin|2015-05-18|CNNIC-ALIBABA-US-NET-AP Alibaba (US) Technology Co., Ltd., CN
49.12.83.44|24940|49.12.0.0/16|DE|ripencc|2010-10-21|HETZNER-AS, DE
5.200.47.22|48096|5.200.47.0/24|RU|ripencc|2012-08-30|ITGRAD, RU
54.198.19.34|14618|54.198.0.0/16|US|arin|2014-10-23|AMAZON-AES, US
54.39.243.49|16276|54.39.0.0/16|CA|arin|2017-10-16|OVH, FR
62.108.45.134|30962|62.108.32.0/20|DE|ripencc|2010-03-19|COMTRANCE-AS, DE
62.76.96.6|51408|62.76.96.0/23|RU|ripencc|1997-06-16|SIRIUS-AS, RU
64.79.104.40|53264|64.79.96.0/20|US|arin|2010-03-05|NCHC-603, US
66.208.64.128|10352|66.208.64.0/20|US|arin|2006-04-17|WCTC, US
66.96.199.249|56300|66.96.199.0/24|SG|apnic|2001-11-01|MYREPUBLIC-SG MyRepublic Ltd., SG
69.64.33.71|30083|69.64.32.0/19|US|arin|2003-07-30|AS-30083-GO-DADDY-COM-LLC, US
70.112.72.204|11427|70.112.0.0/14|US|arin|2004-09-17|TWC-11427-TEXAS, US
70.134.63.129|7018|70.134.0.0/15|US|arin|2005-04-15|ATT-INTERNET4, US
70.171.130.61|22773|70.171.130.0/24|US|arin|2004-07-21|ASN-CXA-ALL-CCI-22773-RDC, US
74.220.255.190|23175|74.220.254.0/23|US|arin|2008-07-24|POGOZONE, US
74.70.21.65|11351|74.70.0.0/16|US|arin|2006-03-27|TWC-11351-NORTHEAST, US
78.90.91.220|35141|78.90.91.0/24|BG|ripencc|2007-06-27|MEGALAN, BG
80.238.125.164|41676|80.238.96.0/19|PL|ripencc|2006-10-03|JMDI ORG-JJM1-RIPE, PL
80.79.114.34|34702|80.79.112.0/20|EE|ripencc|2005-03-18|WAVECOM-AS, EE
82.116.50.101|30936|82.116.32.0/19|RU|ripencc|2004-01-20|RENET-COM-AS RENET COM Autonomous System, RU
83.151.238.65|51918|83.151.236.0/22|GB|ripencc|2004-03-30|CERBERUSNETWORKS-AS, GB
83.220.114.171|12912|83.220.96.0/19|PL|ripencc|2004-04-02|TM, PL
85.184.138.108|204274|85.184.128.0/19|DK|ripencc|2004-11-19|DK-AURA-AS, DK
86.164.81.42|2856|86.128.0.0/10|GB|ripencc|2005-02-07|BT-UK-AS BTnet UK Regional network, GB
88.113.243.194|719|88.112.0.0/14|FI|ripencc|2005-08-24|ELISA-AS Helsinki, Finland, FI
88.147.148.152|12389|88.147.128.0/17|RU|ripencc|2006-01-11|ROSTELECOM-AS, RU
90.227.1.125|3301|90.224.0.0/12|SE|ripencc|2006-05-30|TELIANET-SWEDEN Telia Company, SE
91.105.60.56|12578|91.105.0.0/17|LV|ripencc|2012-06-19|APOLLO-AS Latvia, LV
91.121.110.184|16276|91.121.0.0/16|FR|ripencc|2006-09-20|OVH, FR
91.210.24.30|48078|91.210.24.0/24|RU|ripencc|2008-10-08|DAGOMYS-AS, RU
91.232.105.116|49981|91.232.105.0/24|NL|ripencc|2011-11-09|WORLDSTREAM, NL
92.243.9.198|203476|92.243.0.0/20|FR|ripencc|2008-01-10|GANDI-AS-2 Domain name registrar - http://www.gandi.net, FR
92.91.191.172|15557|92.88.0.0/13|FR|ripencc|2007-10-17|LDCOMNET, FR
93.224.119.12|3320|93.192.0.0/10|DE|ripencc|2008-02-12|DTAG Internet service provider operations, DE
94.154.211.39|48279|94.154.192.0/18|UA|ripencc|2008-10-28|DELTANETUA-NET-AS, UA
94.247.134.77|48716|94.247.134.0/24|KZ|ripencc|2008-12-03|PSKZ-ALA, KZ
95.216.7.158|24940|95.216.0.0/16|DE|ripencc|2009-02-24|HETZNER-AS, DE
98.229.41.231|7922|98.192.0.0/10|US|arin|2007-04-20|COMCAST-7922, US
98.25.193.114|11426|98.24.0.0/15|US|arin|2007-11-02|TWC-11426-CAROLINAS, US
99.152.32.222|7018|99.152.0.0/14|US|arin|2007-08-29|ATT-INTERNET4, US
