# bitcoin dns seeds and whois results
IP Address|ASN|BGP Prefix|CC|Registry|Allocated|AS Name
103.117.146.210|45753|103.117.146.0/24|HK|apnic|2018-06-27|NETSEC-HK NETSEC, HK
104.1.169.215|7018|104.0.0.0/12|US|arin|2014-01-16|ATT-INTERNET4, US
104.194.11.207|23470|104.194.11.0/24|US|arin|2019-02-14|RELIABLESITE, US
106.54.171.167|45090|106.54.128.0/18|CN|apnic|2011-04-06|CNNIC-TENCENT-NET-AP Shenzhen Tencent Computer Systems Company Limited, CN
110.12.64.96|9318|110.12.0.0/16|KR|apnic|2009-02-18|SKB-AS SK Broadband Co Ltd, KR
117.74.45.247|59108|117.74.32.0/19|JP|apnic|2007-07-06|KATCH-NET KATCH NETWORK INC., JP
118.92.41.104|9500|118.92.0.0/16|NZ|apnic|2007-08-24|VODAFONE-TRANSIT-AS Vodafone NZ Ltd., NZ
119.8.47.225|136907|119.8.32.0/19|SG|apnic|2007-11-23|HWCLOUDS-AS-AP HUAWEI CLOUDS, HK
13.55.244.216|16509|13.54.0.0/15|US|arin|2020-08-05|AMAZON-02, US
138.68.20.197|14061|138.68.16.0/20|US|arin|2016-01-26|DIGITALOCEAN-ASN, US
139.153.255.107|786|139.153.0.0/16|GB|ripencc|1992-10-05|JANET Jisc Services Limited, GB
15.161.128.140|16509|15.161.0.0/16|US|arin|2019-12-26|AMAZON-02, US
153.127.253.219|24282|153.127.224.0/19|JP|apnic|2011-03-02|KIR KAGOYA JAPAN Inc., JP
157.13.61.72|2907|157.13.0.0/16|JP|apnic|1992-09-03|SINET-AS Research Organization of Information and Systems, National Institute of Informatics, JP
159.69.123.234|24940|159.69.0.0/16|DE|ripencc|1992-03-13|HETZNER-AS, DE
160.16.0.30|9370|160.16.0.0/17|JP|apnic|1992-06-10|SAKURA-B SAKURA Internet Inc., JP
161.35.233.130|14061|161.35.224.0/20|US|arin|2019-07-30|DIGITALOCEAN-ASN, US
167.172.151.136|14061|167.172.144.0/20|US|ripencc|1993-08-30|DIGITALOCEAN-ASN, US
168.119.174.140|24940|168.119.0.0/16|DE|ripencc|1994-04-05|HETZNER-AS, DE
171.7.53.185|45758|171.7.0.0/16|TH|apnic|2011-03-07|TRIPLETNET-AS-AP Triple T Internet/Triple T Broadband, TH
173.184.29.223|7029|173.184.0.0/13|US|arin|2009-05-06|WINDSTREAM, US
173.249.24.64|51167|173.249.24.0/23|DE|ripencc|2010-05-26|CONTABO, DE
176.9.78.227|24940|176.9.0.0/16|DE|ripencc|2011-05-17|HETZNER-AS, DE
176.99.2.207|197695|176.99.2.0/24|RU|ripencc|2012-06-26|AS-REG, RU
176.99.245.112|35598|176.99.192.0/18|RU|ripencc|2012-06-27|INETCOM, RU
178.189.183.35|8447|178.188.0.0/14|AT|ripencc|2010-02-08|A1TELEKOM-AT A1 Telekom Austria AG, AT
178.236.87.138|42560|178.236.80.0/20|BA|ripencc|2010-06-02|BA-TELEMACH-AS Telemach d.o.o. Sarajevo, BA
178.33.228.210|16276|178.32.0.0/15|FR|ripencc|2010-01-19|OVH, FR
178.62.227.11|14061|178.62.192.0/18|US|ripencc|2010-02-26|DIGITALOCEAN-ASN, US
179.225.132.111|26599|179.224.0.0/15|BR|lacnic|2012-11-14|TELEFONICA BRASIL S.A, BR
18.200.177.101|16509|18.200.0.0/16|US|arin|2019-10-07|AMAZON-02, US
183.90.168.164|45328|183.90.168.0/24|TH|apnic|2009-11-23|NIPA-AS-TH NIPA TECHNOLOGY CO., LTD, TH
184.74.240.157|12271|184.74.224.0/19|US|arin|2010-02-16|TWC-12271-NYC, US
185.169.243.125|60016|185.169.240.0/22|CH|ripencc|2016-09-27|ASFS3, CH
185.238.128.48|206238|185.238.128.0/22|NL|ripencc|2017-12-22|FREEDOMINTERNET, NL
188.166.254.66|14061|188.166.240.0/20|US|ripencc|2009-06-05|DIGITALOCEAN-ASN, US
188.190.234.13|56433|188.190.224.0/19|UA|ripencc|2011-02-17|ASLANUA-NETWORK, UA
188.94.42.24|49375|188.94.40.0/21|GB|ripencc|2009-05-28|AS-TRUNKNETWORKS Trunk Networks - www.trunknetworks.com, GB
192.186.131.26|55286|192.186.128.0/20|CA|arin|2013-08-02|SERVER-MANIA, CA
192.188.2.58|394085|192.188.2.0/24|CA|arin|2015-07-23|THINKON-GUBOV, CA
192.65.170.15|22581|192.65.170.0/24|VI|arin|2014-11-26|ACE-STX, VI
193.238.16.29|39907|193.238.16.0/22|PL|ripencc|2005-02-11|BACKUP-PL-AS, PL
195.202.169.149|8339|195.202.160.0/19|AT|ripencc|1998-02-20|KABSI-AS, AT
2.152.78.124|6739|2.152.0.0/16|ES|ripencc|2010-11-03|ONO-AS Cableuropa - ONO, ES
201.212.29.93|10481|201.212.0.0/19|AR|lacnic|2005-08-09|Telecom Argentina S.A., AR
202.184.197.236|9930|202.184.0.0/15|MY|apnic|1995-10-09|TTNET-MY TIME dotCom Berhad No. 14, Jalan Majistret U1/26 Hicom Glenmarie Industrial Park 40150 Shah Alam Selangor, Malaysia, MY
206.54.209.61|12177|206.54.192.0/19|US|arin|2004-05-27|ETS-TELEPHONE-COMPANY, US
208.73.156.62|40447|208.73.156.0/22|US|arin|2017-02-08|SKYHAWK-GROUP, US
209.6.50.76|6079|209.6.0.0/16|US|arin|1996-12-20|RCN-AS, US
213.109.238.156|47702|213.109.236.0/22|UA|ripencc|2009-10-07|DISCOVERY-AS, UA
213.124.183.90|33915|213.124.176.0/20|NL|ripencc|1999-09-16|TNF-AS, NL
213.159.199.54|44845|213.159.199.0/24|RU|ripencc|2008-03-18|CIT, RU
213.178.28.118|29413|213.178.16.0/20|DE|ripencc|1999-12-15|KOMRO-AS Komro Telekommunikations GmbH, DE
217.104.75.11|33915|217.104.64.0/18|NL|ripencc|2000-12-05|TNF-AS, NL
23.125.224.84|7018|23.112.0.0/12|US|arin|2013-08-09|ATT-INTERNET4, US
3.25.97.204|16509|3.24.0.0/14|US|arin|2017-12-20|AMAZON-02, US
3.35.168.137|16509|3.34.0.0/15|US|arin|2017-12-20|AMAZON-02, US
34.106.105.122|15169|34.104.0.0/14|US|arin|2018-09-28|GOOGLE, US
34.123.213.165|15169|34.120.0.0/14|US|arin|2018-09-28|GOOGLE, US
34.125.180.222|15169|34.124.0.0/14|US|arin|2018-09-28|GOOGLE, US
34.64.243.112|139070|34.64.0.0/16|US|arin|2018-09-28|GOOGLE-AS-AP Google Asia Pacific Pte. Ltd., SG
34.75.113.198|15169|34.72.0.0/14|US|arin|2018-09-28|GOOGLE, US
34.91.86.7|15169|34.88.0.0/14|US|arin|2018-09-28|GOOGLE, US
35.189.76.12|15169|35.189.64.0/19|US|arin|2016-10-11|GOOGLE, US
35.201.200.26|15169|35.200.0.0/14|US|arin|2017-03-21|GOOGLE, US
37.235.178.123|41268|37.235.128.0/17|RU|ripencc|2012-04-16|LANTA-AS, RU
38.133.35.100|398721|38.133.32.0/20|US|arin|1991-04-16|OXIO-ASN-01, CA
43.225.157.152|133115|43.225.157.0/24|HK|apnic|2016-07-11|HKKFGL-AS-AP HK Kwaifong Group Limited, HK
45.63.54.13|20473|45.63.48.0/20|US|arin|2015-01-02|AS-CHOOPA, US
45.66.166.180|18978|45.66.166.0/23|LV|ripencc|2019-02-13|ENZUINC-, US
46.229.238.187|29405|46.229.224.0/20|SK|ripencc|2011-02-21|VNET-AS, SK
46.46.112.7|48045|46.46.64.0/18|UA|ripencc|2010-09-22|FLAGMAN-AS, UA
47.102.193.203|37963|47.102.0.0/15|CN|apnic|1989-01-06|CNNIC-ALIBABA-CN-NET-AP Hangzhou Alibaba Advertising Co.,Ltd., CN
5.188.56.52|49505|5.188.56.0/22|RU|ripencc|2012-08-09|SELECTEL, RU
5.9.88.71|24940|5.9.0.0/16|DE|ripencc|2012-04-25|HETZNER-AS, DE
50.72.107.51|6327|50.72.104.0/22|CA|arin|2010-10-28|SHAW, CA
50.98.36.67|852|50.98.0.0/16|CA|arin|2011-03-31|ASN852, CA
51.15.4.14|12876|51.15.0.0/17|FR|ripencc|1993-09-01|Online SAS, FR
52.142.150.101|8075|52.136.0.0/13|US|arin|2015-11-24|MICROSOFT-CORP-MSN-AS-BLOCK, US
52.53.229.86|16509|52.52.0.0/15|US|arin|1991-12-19|AMAZON-02, US
52.60.83.92|16509|52.60.64.0/18|US|arin|1991-12-19|AMAZON-02, US
62.38.75.208|3329|62.38.0.0/16|GR|ripencc|2001-05-30|HOL-GR Athens, Greece, GR
64.227.97.247|14061|64.227.96.0/20|US|arin|2019-08-14|DIGITALOCEAN-ASN, US
65.36.83.142|7459|65.36.0.0/17|US|arin|2008-09-05|GRANDECOM-AS1, US
66.194.38.42|35863|66.194.38.0/24|US|arin|2001-10-25|TELCO214US1, US
67.208.195.20|21889|67.208.195.0/24|US|arin|2007-07-18|RAPIDSYSTEMS, US
67.215.5.58|36666|67.215.0.0/20|CA|arin|2007-10-08|GTCOMM, CA
70.172.73.188|22773|70.172.0.0/17|US|arin|2004-07-21|ASN-CXA-ALL-CCI-22773-RDC, US
72.53.134.182|11814|72.53.128.0/20|CA|arin|2005-07-29|DISTRIBUTEL-AS11814, CA
73.152.13.229|7922|73.0.0.0/8|US|arin|2005-04-19|COMCAST-7922, US
73.189.164.139|7922|73.0.0.0/8|US|arin|2005-04-19|COMCAST-7922, US
73.98.109.141|7922|73.0.0.0/8|US|arin|2005-04-19|COMCAST-7922, US
77.225.162.222|12430|77.224.0.0/13|ES|ripencc|2006-12-06|VODAFONE_ES, ES
77.248.178.74|33915|77.248.0.0/15|NL|ripencc|2007-01-26|TNF-AS, NL
77.251.174.25|33915|77.250.0.0/15|NL|ripencc|2007-01-26|TNF-AS, NL
78.132.16.236|8412|78.132.0.0/17|AT|ripencc|2007-05-30|TMA Magenta Telekom, AT
78.157.91.120|21211|78.157.64.0/19|LT|ripencc|2007-08-29|PENKI-AS LT-01115, Vilnius, LT
79.134.99.112|16302|79.134.96.0/19|FI|ripencc|2007-10-22|SUOMICOMMUNICATIONS, FI
8.209.95.59|45102|8.209.64.0/19|SG|apnic|1992-12-01|CNNIC-ALIBABA-US-NET-AP Alibaba (US) Technology Co., Ltd., CN
8.210.170.138|45102|8.210.128.0/17|SG|apnic|1992-12-01|CNNIC-ALIBABA-US-NET-AP Alibaba (US) Technology Co., Ltd., CN
8.210.18.56|45102|8.210.0.0/17|SG|apnic|1992-12-01|CNNIC-ALIBABA-US-NET-AP Alibaba (US) Technology Co., Ltd., CN
81.0.198.25|21430|81.0.198.0/24|CZ|ripencc|2001-12-14|WIA-AS, CZ
82.193.102.228|25521|82.193.96.0/19|UA|ripencc|2003-10-08|ASN-ASIPN, UA
83.128.49.155|15435|83.128.0.0/16|NL|ripencc|2004-01-05|KABELFOON DELTA Fiber Nederland, NL
83.161.127.154|3265|83.160.0.0/14|NL|ripencc|2004-03-03|XS4ALL-NL Amsterdam, NL
83.162.251.163|3265|83.160.0.0/14|NL|ripencc|2004-03-03|XS4ALL-NL Amsterdam, NL
84.197.198.167|6848|84.192.0.0/13|BE|ripencc|2004-04-21|TELENET-AS, BE
84.92.92.247|6871|84.92.0.0/15|GB|ripencc|2004-05-18|PLUSNET UK Internet Service Provider, GB
85.214.185.51|6724|85.214.0.0/15|DE|ripencc|2005-02-24|STRATO STRATO AG, DE
86.132.208.148|2856|86.128.0.0/12|GB|ripencc|2005-02-07|BT-UK-AS BTnet UK Regional network, GB
87.247.111.222|21412|87.247.64.0/18|LT|ripencc|2005-09-06|CGATES-AS, LT
89.216.104.9|31042|89.216.0.0/17|RS|ripencc|2006-06-21|SERBIA-BROADBAND-AS Serbia BroadBand-Srpske Kablovske mreze d.o.o., RS
90.76.88.15|3215|90.76.0.0/16|FR|ripencc|2006-03-02|France Telecom - Orange, FR
91.224.20.71|60562|91.224.20.0/23|IR|ripencc|2019-10-03|BEHDASHT-IT, IR
93.95.102.81|48347|93.95.100.0/22|RU|ripencc|2008-03-28|MTW-AS, RU
95.110.234.93|31034|95.110.192.0/18|IT|ripencc|2008-12-18|ARUBA-ASN, IT
96.47.114.108|397122|96.47.112.0/20|US|arin|2009-11-17|NORVADO-NET, US
96.57.248.252|6128|96.56.0.0/15|US|arin|2008-01-08|CABLE-NET-1, US
99.88.47.34|7018|99.88.0.0/13|US|arin|2008-02-25|ATT-INTERNET4, US
