# bitcoin dns seeds and whois results
IP Address|ASN|BGP Prefix|CC|Registry|Allocated|AS Name
100.36.76.248|701|100.36.0.0/16|US|arin|2010-12-28|UUNET, US
104.166.89.122|46261|104.166.64.0/19|US|arin|2014-08-12|QUICKPACKET, US
107.143.246.110|7018|107.128.0.0/12|US|arin|2013-10-23|ATT-INTERNET4, US
118.189.187.219|4773|118.189.184.0/21|SG|apnic|2007-10-19|MOBILEONELTD-AS-AP MobileOne Ltd. Mobile/Internet Service Provider Singapore, SG
128.0.190.26|30764|128.0.176.0/20|CZ|ripencc|2012-09-14|PODA-AS, CZ
128.1.133.114|135377|128.1.133.0/24|US|arin|2016-09-07|UCLOUD-HK-AS-AP UCLOUD INFORMATION TECHNOLOGY (HK) LIMITED, HK
13.209.125.83|16509|13.209.0.0/16|US|arin|2019-10-01|AMAZON-02, US
13.228.139.137|16509|13.228.0.0/15|US|arin|2019-10-01|AMAZON-02, US
13.229.227.15|16509|13.228.0.0/15|US|arin|2019-10-01|AMAZON-02, US
13.230.246.241|16509|13.230.0.0/15|US|arin|2019-10-01|AMAZON-02, US
13.238.120.8|16509|13.236.0.0/14|US|arin|2019-10-01|AMAZON-02, US
136.244.65.212|20473|136.244.64.0/20|US|arin|2019-04-08|AS-CHOOPA, US
139.219.2.42|58593|139.219.0.0/17|CN|apnic|2011-03-08|BLUECLOUD Shanghai Blue Cloud Technology Co.,Ltd, CN
141.101.8.36|31272|141.101.0.0/19|UA|ripencc|2011-06-23|WILDPARK-AS ISP WildPark, Ukraine, Nikolaev, UA
142.4.119.11|54600|142.4.96.0/19|US|arin|2012-07-12|PEGTECHINC, US
15.223.114.10|16509|15.222.0.0/15|US|arin|2019-12-26|AMAZON-02, US
157.230.89.219|14061|157.230.80.0/20|US|arin|2018-08-22|DIGITALOCEAN-ASN, US
157.245.64.189|14061|157.245.64.0/20|US|arin|2019-05-09|DIGITALOCEAN-ASN, US
158.69.245.223|16276|158.69.0.0/16|CA|arin|2015-06-15|OVH, FR
162.0.226.225|22612|162.0.226.0/24|US|arin|2020-04-03|NAMECHEAP-NET, US
162.219.197.152|11550|162.219.196.0/22|US|arin|2013-08-16|SDL-20-AS, US
167.71.167.243|14061|167.71.160.0/20|US|arin|2019-04-24|DIGITALOCEAN-ASN, US
167.71.98.172|14061|167.71.96.0/20|US|arin|2019-04-24|DIGITALOCEAN-ASN, US
167.99.209.209|14061|167.99.208.0/20|US|arin|2017-11-10|DIGITALOCEAN-ASN, US
178.148.160.111|31042|178.148.0.0/16|RS|ripencc|2010-03-19|SERBIA-BROADBAND-AS Serbia BroadBand-Srpske Kablovske mreze d.o.o., RS
178.170.48.17|21409|178.170.0.0/17|FR|ripencc|2010-03-30|IKOULA, FR
178.236.87.138|42560|178.236.80.0/20|BA|ripencc|2010-06-02|BA-TELEMACH-AS Telemach d.o.o. Sarajevo, BA
18.130.244.84|16509|18.130.0.0/16|US|arin|2019-10-07|AMAZON-02, US
18.181.250.178|16509|18.180.0.0/15|US|arin|2019-10-07|AMAZON-02, US
180.150.73.103|4764|180.150.72.0/22|AU|apnic|2009-09-01|WIDEBAND-AS-AP Aussie Broadband, AU
180.216.71.170|4804|180.216.0.0/17|AU|apnic|2009-10-05|MPX-AS Microplex PTY LTD, AU
184.154.94.219|32475|184.154.0.0/16|US|arin|2010-06-21|SINGLEHOP-LLC, US
185.104.180.7|48881|185.104.180.0/22|RO|ripencc|2015-06-15|DATA-NODE-AS, RO
185.134.213.130|43451|185.134.212.0/22|SK|ripencc|2016-01-18|RADIOLAN-SK-AS, SK
185.26.28.170|31415|185.26.28.0/24|RU|ripencc|2013-05-14|SVSCOMM-AS, RU
185.66.180.33|201375|185.66.180.0/24|GB|ripencc|2014-08-08|NG-MKDC0, GB
185.8.172.123|60631|185.8.172.0/24|IR|ripencc|2012-11-01|PARVASYSTEM, IR
187.86.128.94|53066|187.86.128.0/24|BR|lacnic|2009-08-26|VETORIALNET INF. E SERVICOS DE INTERNET LTDA, BR
188.166.120.198|14061|188.166.64.0/18|US|ripencc|2009-06-05|DIGITALOCEAN-ASN, US
189.207.46.32|6503|189.207.32.0/19|MX|lacnic|2014-06-12|Axtel, S.A.B. de C.V., MX
192.166.219.200|41508|192.166.216.0/22|PL|ripencc|2011-03-03|PL-IWACOM-AS, PL
193.111.156.2|24881|193.111.156.0/22|UA|ripencc|2002-04-25|INTERPHONE-AS, UA
193.124.245.179|39441|193.124.244.0/22|DE|ripencc|1993-09-01|HABNET, DE
194.145.199.26|34715|194.145.199.0/24|UA|ripencc|2005-03-21|AMRON-AS, UA
194.26.29.152|206728|194.26.29.0/24|RU|ripencc|2019-11-20|MEDIALAND-AS, RU
195.154.113.90|12876|195.154.0.0/16|FR|ripencc|1996-08-27|Online SAS, FR
195.202.169.149|8339|195.202.160.0/19|AT|ripencc|1998-02-20|KABSI-AS, AT
200.145.2.23|53166|200.145.0.0/17|BR|lacnic|1999-11-12|UNIVERSIDADE ESTADUAL PAULISTA, BR
204.107.27.43|54303|204.107.27.0/24|US|arin|2011-12-19|FILMO, US
209.131.236.105|393552|209.131.236.0/23|US|arin|2015-04-20|COL-LPC, US
213.145.110.75|9070|213.145.110.0/24|BG|ripencc|2002-08-02|COOOLBOX, BG
213.251.238.34|29420|213.251.224.0/20|RU|ripencc|2003-05-09|NLINE-AS, RU
216.107.238.165|11524|216.107.224.0/20|US|arin|2000-07-25|SEGNET, US
217.19.216.210|1547|217.19.216.0/24|MD|ripencc|2003-01-24|IDK-NETWORK, MD
217.64.47.138|39324|217.64.32.0/20|FI|ripencc|2010-05-12|MEDIAM-AS, FI
220.135.81.163|3462|220.135.64.0/18|TW|apnic|2003-06-09|HINET Data Communication Business Group, TW
23.113.163.197|7018|23.112.0.0/12|US|arin|2013-08-09|ATT-INTERNET4, US
24.21.229.157|7922|24.16.0.0/13|US|arin|2003-12-08|COMCAST-7922, US
3.230.162.30|14618|3.224.0.0/12|US|arin|2018-06-25|AMAZON-AES, US
3.25.130.248|16509|3.24.0.0/14|US|arin|2017-12-20|AMAZON-02, US
3.96.170.113|16509|3.96.0.0/15|US|arin|2017-12-20|AMAZON-02, US
3.97.201.205|16509|3.96.0.0/15|US|arin|2017-12-20|AMAZON-02, US
31.24.9.182|8758|31.24.8.0/21|CH|ripencc|2011-02-21|IWAY, CH
31.25.246.206|39741|31.25.246.0/24|RU|ripencc|2011-03-10|DCE-AS, RU
31.3.135.181|199662|31.3.134.0/23|CH|ripencc|2011-04-08|EXION, CH
34.244.233.188|16509|34.240.0.0/13|US|arin|2016-09-12|AMAZON-02, US
34.74.178.245|15169|34.72.0.0/14|US|arin|2018-09-28|GOOGLE, US
34.86.228.49|15169|34.84.0.0/14|US|arin|2018-09-28|GOOGLE, US
34.93.222.205|15169|34.92.0.0/14|US|arin|2018-09-28|GOOGLE, US
34.95.39.53|15169|34.92.0.0/14|US|arin|2018-09-28|GOOGLE, US
37.191.243.119|57963|37.191.128.0/17|NO|ripencc|2012-03-21|LYNET-INTERNETT-AS, NO
46.105.125.196|16276|46.105.0.0/16|FR|ripencc|2010-11-29|OVH, FR
46.126.139.2|6830|46.126.0.0/16|CH|ripencc|2010-06-01|LIBERTYGLOBAL Liberty Global (formerly UPC Broadband Holding, aka AORTA), NL
47.252.80.192|45102|47.252.64.0/18|US|arin|2016-04-15|CNNIC-ALIBABA-US-NET-AP Alibaba (US) Technology Co., Ltd., CN
47.254.174.194|45102|47.254.160.0/19|US|arin|2016-04-15|CNNIC-ALIBABA-US-NET-AP Alibaba (US) Technology Co., Ltd., CN
5.150.239.205|8473|5.150.192.0/18|SE|ripencc|2012-07-18|BAHNHOF http://www.bahnhof.net/, SE
5.188.56.53|49505|5.188.56.0/22|RU|ripencc|2012-08-09|SELECTEL, RU
5.8.18.31|202425|5.8.18.0/24|RU|ripencc|2012-04-25|INT-NETWORK, SC
50.2.13.164|62904|50.2.12.0/23|US|arin|2010-06-25|EONIX-COMMUNICATIONS-ASBLOCK-62904, US
51.159.36.233|12876|51.158.0.0/15|FR|ripencc|1993-09-01|Online SAS, FR
52.53.175.201|16509|52.52.0.0/15|US|arin|1991-12-19|AMAZON-02, US
54.164.111.200|14618|54.164.0.0/15|US|arin|2014-10-23|AMAZON-AES, US
54.94.158.137|16509|54.94.128.0/18|US|arin|2014-06-20|AMAZON-02, US
60.244.109.19|24154|60.244.96.0/19|TW|apnic|2005-01-21|APBT-AS-TW Asia Pacific Broadband Fixed Lines Co., Ltd., TW
62.138.206.160|61157|62.138.192.0/20|DE|ripencc|2000-09-19|PLUSSERVER-ASN1, DE
62.63.249.166|8473|62.63.192.0/18|SE|ripencc|2005-06-10|BAHNHOF http://www.bahnhof.net/, SE
63.249.96.19|11994|63.249.96.0/21|US|arin|2000-12-15|CZIO-ASN, US
64.15.128.212|32613|64.15.128.0/19|CA|arin|2005-11-07|IWEB-AS, CA
64.225.0.238|14061|64.225.0.0/20|US|arin|2019-08-14|DIGITALOCEAN-ASN, US
64.225.71.231|14061|64.225.64.0/20|US|arin|2019-08-14|DIGITALOCEAN-ASN, US
64.227.10.167|14061|64.227.0.0/20|US|arin|2019-08-14|DIGITALOCEAN-ASN, US
64.79.104.40|53264|64.79.96.0/20|US|arin|2010-03-05|NCHC-603, US
66.194.38.42|35863|66.194.38.0/24|US|arin|2001-10-25|TELCO214US1, US
71.255.255.151|701|71.255.224.0/19|US|arin|2004-11-09|UUNET, US
73.236.100.108|7922|73.0.0.0/8|US|arin|2005-04-19|COMCAST-7922, US
76.11.17.187|11260|76.11.0.0/19|CA|arin|2007-02-23|EASTLINK-HSI, CA
76.173.238.49|20001|76.173.0.0/16|US|arin|2006-07-26|TWC-20001-PACWEST, US
77.85.204.149|8866|77.85.204.0/24|BG|ripencc|2007-03-19|BTC-AS BULGARIA, BG
78.143.145.1|35226|78.143.128.0/18|IE|ripencc|2007-08-17|RIPPLECOM-AS, IE
78.23.204.168|6848|78.20.0.0/14|BE|ripencc|2007-05-14|TELENET-AS, BE
78.27.139.13|15683|78.27.128.0/18|UA|ripencc|2010-06-11|DOMASHKA-AS, UA
80.47.155.183|9105|80.46.0.0/15|GB|ripencc|2001-11-23|TISCALI-UK TalkTalk Communications Limited, GB
82.148.25.100|49505|82.148.24.0/22|RU|ripencc|2003-07-10|SELECTEL, RU
83.243.191.199|41164|83.243.160.0/19|NO|ripencc|2004-03-30|GET-NO GET Norway, NO
85.212.57.45|12312|85.212.0.0/18|DE|ripencc|2005-02-22|ECOTEL, DE
85.214.78.60|6724|85.214.0.0/15|DE|ripencc|2005-02-24|STRATO STRATO AG, DE
85.216.149.129|6830|85.216.128.0/18|SK|ripencc|2005-01-14|LIBERTYGLOBAL Liberty Global (formerly UPC Broadband Holding, aka AORTA), NL
88.208.57.212|39572|88.208.0.0/18|NL|ripencc|2005-10-24|ADVANCEDHOSTERS-AS, NL
89.108.122.224|197695|89.108.122.0/24|RU|ripencc|2006-03-20|AS-REG, RU
91.53.49.84|3320|91.0.0.0/10|DE|ripencc|2006-07-03|DTAG Internet service provider operations, DE
91.87.96.138|47377|91.87.96.0/19|BE|ripencc|2006-08-15|ORANGE_BELGIUM_SA KPN Belgium Business NV has been acquired by Mobistar, BE
92.217.71.124|3209|92.216.0.0/14|DE|ripencc|2007-10-17|VODANET International IP-Backbone of Vodafone, DE
93.115.28.92|16125|93.115.24.0/21|LT|ripencc|2007-12-21|CHERRYSERVERS1-AS, LT
93.81.246.144|8402|93.80.0.0/15|RU|ripencc|2008-02-05|CORBINA-AS OJSC _Vimpelcom_, RU
94.244.97.244|25190|94.244.64.0/18|LT|ripencc|2009-09-09|KIS-AS, LT
95.183.55.40|197988|95.183.48.0/20|CH|ripencc|2009-02-10|SOLARCOM, CH
95.76.126.95|6830|95.76.0.0/16|RO|ripencc|2008-12-08|LIBERTYGLOBAL Liberty Global (formerly UPC Broadband Holding, aka AORTA), NL
97.81.244.191|20115|97.81.240.0/20|US|arin|2007-03-21|CHARTER-20115, US
