# bitcoin dns seeds and whois results
IP Address|ASN|BGP Prefix|CC|Registry|Allocated|AS Name
103.231.191.7|17831|103.231.191.0/24|SG|apnic|2014-05-16|CENTERHOP-SG 8 Burn Road# 15-13, Trivex, SG
104.218.16.214|19969|104.218.16.0/21|US|arin|2014-10-01|JOESDATACENTER, US
104.248.160.118|14061|104.248.160.0/20|US|arin|2018-08-06|DIGITALOCEAN-ASN, US
109.110.81.90|35816|109.110.64.0/19|RU|ripencc|2009-11-19|SEVSTAR Sevastopol, Russia, RU
109.153.78.239|2856|109.144.0.0/12|GB|ripencc|2009-08-06|BT-UK-AS BTnet UK Regional network, GB
117.74.45.247|59108|117.74.32.0/19|JP|apnic|2007-07-06|KATCH-NET KATCH NETWORK INC., JP
120.25.24.30|37963|120.25.0.0/16|CN|apnic|2008-03-12|CNNIC-ALIBABA-CN-NET-AP Hangzhou Alibaba Advertising Co.,Ltd., CN
13.125.222.163|16509|13.125.0.0/16|US|arin|2016-08-09|AMAZON-02, US
135.181.132.158|24940|135.181.0.0/16|DE|ripencc|1996-04-30|HETZNER-AS, DE
135.23.203.70|5645|135.23.192.0/20|CA|arin|2013-05-09|TEKSAVVY, CA
136.58.103.30|16591|136.58.96.0/20|US|arin|2015-10-06|GOOGLE-FIBER, US
138.68.53.187|14061|138.68.48.0/20|US|arin|2016-01-26|DIGITALOCEAN-ASN, US
143.110.175.239|14061|143.110.160.0/20|US|arin|2020-01-17|DIGITALOCEAN-ASN, US
145.14.25.172|2586|145.14.16.0/20|EE|ripencc|1993-09-01|UNINET-AS Sopruse pst 145, EE
149.224.246.95|15943|149.224.128.0/17|DE|ripencc|1993-09-01|WTNET-AS wilhelm.tel GmbH, DE
15.185.59.217|16509|15.185.0.0/16|US|arin|2018-09-27|AMAZON-02, US
15.185.66.211|16509|15.185.0.0/16|US|arin|2018-09-27|AMAZON-02, US
162.0.234.202|22612|162.0.224.0/20|US|arin|2020-04-03|NAMECHEAP-NET, US
167.71.39.132|14061|167.71.32.0/20|US|arin|2019-04-24|DIGITALOCEAN-ASN, US
168.119.103.204|24940|168.119.0.0/16|DE|ripencc|1994-04-05|HETZNER-AS, DE
173.62.236.28|701|173.62.128.0/17|US|arin|2008-10-09|UUNET, US
176.104.25.140|41435|176.104.0.0/18|UA|ripencc|2011-12-20|UNDERNET-AS1, UA
176.36.81.57|39608|176.36.0.0/16|UA|ripencc|2011-05-20|LANETUA-AS, UA
176.9.63.240|24940|176.9.0.0/16|DE|ripencc|2011-05-17|HETZNER-AS, DE
178.16.222.146|50821|178.16.208.0/20|SE|ripencc|2010-03-09|ASHPDC, SE
178.236.137.63|42775|178.236.136.0/23|RU|ripencc|2010-06-09|DSRT-NET, RU
178.236.87.138|42560|178.236.80.0/20|BA|ripencc|2010-06-02|BA-TELEMACH-AS Telemach d.o.o. Sarajevo, BA
178.62.2.80|14061|178.62.0.0/18|US|ripencc|2010-02-26|DIGITALOCEAN-ASN, US
184.171.208.109|40788|184.171.208.0/20|CA|arin|2010-10-19|START-, CA
185.239.220.210|61282|185.239.220.0/22|SE|ripencc|2018-12-03|BRAINMILL, SE
185.48.43.53|200933|185.48.40.0/22|HU|ripencc|2014-02-18|TERANET-HU-AS, HU
186.71.71.44|14522|186.71.64.0/19|EC|lacnic|2011-04-27|Satnet, EC
188.122.2.55|49743|188.122.0.0/20|PL|ripencc|2009-05-14|FINEMEDIA-WROCLAW, PL
188.166.254.66|14061|188.166.240.0/20|US|ripencc|2009-06-05|DIGITALOCEAN-ASN, US
188.190.234.13|56433|188.190.224.0/19|UA|ripencc|2011-02-17|ASLANUA-NETWORK, UA
188.68.45.143|197540|188.68.32.0/20|DE|ripencc|2009-08-25|NETCUP-AS netcup GmbH, DE
190.104.249.44|11014|190.104.249.0/24|AR|lacnic|2012-03-23|CPS, AR
192.166.219.200|41508|192.166.216.0/22|PL|ripencc|2011-03-03|PL-IWACOM-AS, PL
193.169.244.190|42159|193.169.244.0/23|UA|ripencc|2009-08-13|DELTAHOST-AS, UA
193.37.152.138|51167|193.37.152.0/24|DE|ripencc|2006-10-19|CONTABO, DE
194.135.135.69|25227|194.135.135.0/24|RU|ripencc|1995-02-06|ASN-AVANTEL-MSK Located in Moscow, Russia., RU
194.5.159.197|47583|194.5.159.0/24|DE|ripencc|2018-07-23|AS-HOSTINGER, CY
194.79.60.106|35804|194.79.60.0/22|UA|ripencc|2005-10-25|AL, UA
198.144.141.16|55900|198.144.128.0/20|JP|apnic|1999-12-03|GLBB-JP GLBB Japan KK, JP
2.224.246.80|12874|2.224.0.0/13|IT|ripencc|2010-12-30|FASTWEB, IT
202.73.14.205|55720|202.73.14.0/24|MY|apnic|2004-12-03|GIGABIT-MY Gigabit Hosting Sdn Bhd, MY
203.151.166.124|4618|203.151.160.0/19|TH|apnic|1997-07-01|INET-TH-AS Internet Thailand Company Limited, TH
204.14.245.176|18918|204.14.244.0/22|US|arin|2008-12-17|UNOCOMM, US
205.234.55.26|6058|205.234.54.0/23|CA|arin|2004-04-06|NORTHWESTEL-INC, CA
206.189.101.68|14061|206.189.96.0/20|US|arin|1995-11-15|DIGITALOCEAN-ASN, US
206.189.154.38|14061|206.189.144.0/20|US|arin|1995-11-15|DIGITALOCEAN-ASN, US
207.244.252.148|40021|207.244.240.0/20|US|arin|1996-11-20|CONTABO, US
207.246.126.79|20473|207.246.120.0/21|US|arin|2017-10-13|AS-CHOOPA, US
209.122.211.18|6079|209.122.0.0/16|US|arin|1997-08-06|RCN-AS, US
212.112.116.228|12764|212.112.116.0/24|KG|ripencc|1999-10-29|AKNET-AS, KG
24.237.70.53|8047|24.237.0.0/16|US|arin|1997-10-14|GCI, US
24.85.213.183|6327|24.85.212.0/22|CA|arin|2001-07-12|SHAW, CA
3.112.173.12|16509|3.112.0.0/14|US|arin|2017-12-20|AMAZON-02, US
3.34.180.213|16509|3.34.0.0/15|US|arin|2017-12-20|AMAZON-02, US
32.214.183.114|46690|32.208.0.0/12|US|arin|1990-05-30|SNET-FCC, US
34.125.77.92|15169|34.124.0.0/14|US|arin|2018-09-28|GOOGLE, US
34.240.10.66|16509|34.240.0.0/13|US|arin|2016-09-12|AMAZON-02, US
34.249.158.199|16509|34.248.0.0/13|US|arin|2016-09-12|AMAZON-02, US
34.64.199.161|139070|34.64.0.0/16|US|arin|2018-09-28|GOOGLE-AS-AP Google Asia Pacific Pte. Ltd., SG
34.82.27.114|15169|34.80.0.0/14|US|arin|2018-09-28|GOOGLE, US
34.87.251.72|15169|34.84.0.0/14|US|arin|2018-09-28|GOOGLE, US
35.242.205.19|15169|35.240.0.0/14|US|arin|2017-09-29|GOOGLE, US
35.244.9.182|15169|35.244.0.0/14|US|arin|2017-09-29|GOOGLE, US
43.225.60.221|135352|43.225.60.0/22|AU|apnic|2014-12-02|TSGNLCO-AS-AP The Signal Co. Wireless, AU
45.136.12.47|139659|45.136.12.0/24|HK|ripencc|2019-07-31|LUCID-AS-AP LUCIDACLOUD LIMITED, HK
45.63.54.13|20473|45.63.48.0/20|US|arin|2015-01-02|AS-CHOOPA, US
5.188.56.57|49505|5.188.56.0/22|RU|ripencc|2012-08-09|SELECTEL, RU
50.5.46.195|6181|50.5.0.0/17|US|arin|2010-09-09|FUSE-NET, US
50.81.111.72|30036|50.81.110.0/23|US|arin|2010-11-03|MEDIACOM-ENTERPRISE-BUSINESS, US
51.77.152.20|16276|51.77.0.0/16|FR|ripencc|1993-09-01|OVH, FR
51.77.53.58|16276|51.77.0.0/16|FR|ripencc|1993-09-01|OVH, FR
52.142.150.101|8075|52.136.0.0/13|US|arin|2015-11-24|MICROSOFT-CORP-MSN-AS-BLOCK, US
52.57.53.177|16509|52.57.0.0/16|US|arin|2015-09-02|AMAZON-02, US
52.60.222.172|16509|52.60.128.0/17|US|arin|2015-09-02|AMAZON-02, US
54.213.65.91|16509|54.213.0.0/16|US|arin|2013-02-19|AMAZON-02, US
54.218.245.41|16509|54.218.128.0/17|US|arin|2013-02-19|AMAZON-02, US
58.158.0.86|17506|58.158.0.0/16|JP|apnic|2005-07-26|UCOM ARTERIA Networks Corporation, JP
60.244.109.18|24154|60.244.96.0/19|TW|apnic|2005-01-21|APBT-AS-TW Asia Pacific Broadband Fixed Lines Co., Ltd., TW
60.244.109.19|24154|60.244.96.0/19|TW|apnic|2005-01-21|APBT-AS-TW Asia Pacific Broadband Fixed Lines Co., Ltd., TW
60.251.129.61|3462|60.251.0.0/16|TW|apnic|2006-07-31|HINET Data Communication Business Group, TW
62.171.154.12|51167|62.171.154.0/23|DE|ripencc|2000-08-18|CONTABO, DE
62.215.127.73|21050|62.215.120.0/21|KW|ripencc|2000-12-18|FAST-TELCO, KW
66.251.201.18|3356|66.251.201.0/24|US|arin|2005-05-18|LEVEL3, US
67.159.134.74|14051|67.159.128.0/19|US|arin|2006-12-27|SUREWEST, US
68.183.235.253|14061|68.183.224.0/20|US|arin|2018-09-18|DIGITALOCEAN-ASN, US
69.12.80.84|8100|69.12.64.0/19|US|arin|2014-02-27|ASN-QUADRANET-GLOBAL, US
72.222.130.133|22773|72.222.128.0/17|US|arin|2005-08-03|ASN-CXA-ALL-CCI-22773-RDC, US
77.120.116.85|25229|77.120.96.0/19|UA|ripencc|2006-11-24|VOLIA-AS, UA
77.70.16.245|35141|77.70.16.0/24|BG|ripencc|2007-02-21|MEGALAN, BG
78.143.145.1|35226|78.143.128.0/18|IE|ripencc|2007-08-17|RIPPLECOM-AS, IE
79.142.248.130|50821|79.142.240.0/20|SE|ripencc|2009-06-15|ASHPDC, SE
80.241.217.54|51167|80.241.216.0/23|DE|ripencc|2011-02-14|CONTABO, DE
82.10.220.141|5089|82.8.0.0/14|GB|ripencc|2003-02-28|NTL, GB
82.197.215.125|25596|82.197.192.0/19|NL|ripencc|2003-11-11|CAMBRIUM-AS, NL
83.167.247.177|24971|83.167.224.0/19|CZ|ripencc|2008-08-21|MASTER-AS Czech Republic / www.master.cz, CZ
84.250.13.190|1759|84.248.0.0/14|FI|ripencc|2004-06-02|TSF-IP-CORE Telia Finland Oyj, FI
85.152.230.108|12946|85.152.224.0/19|ES|ripencc|2004-10-20|TELECABLE Spain, ES
85.195.54.110|35706|85.195.0.0/18|SE|ripencc|2005-01-04|NAO, SE
86.89.77.44|1136|86.80.0.0/12|NL|ripencc|2005-03-23|KPN KPN National, NL
87.214.199.95|13127|87.208.0.0/13|NL|ripencc|2005-06-02|T-MOBILE AS for the Trans-European T-Mobile IP Transport backbone, NL
88.198.33.152|24940|88.198.0.0/16|DE|ripencc|2005-12-27|HETZNER-AS, DE
88.86.125.50|39392|88.86.96.0/19|CZ|ripencc|2006-02-14|SUPERNETWORK (^_^)/, CZ
89.135.150.137|6830|89.134.0.0/15|HU|ripencc|2006-01-17|LIBERTYGLOBAL Liberty Global (formerly UPC Broadband Holding, aka AORTA), NL
91.187.89.18|6752|91.187.88.0/22|AD|ripencc|2006-11-17|ANDORRA Andorra Telecom, AD
93.236.43.148|3320|93.192.0.0/10|DE|ripencc|2008-02-12|DTAG Internet service provider operations, DE
93.95.102.81|48347|93.95.100.0/22|RU|ripencc|2008-03-28|MTW-AS, RU
94.154.159.99|62240|94.154.159.0/24|GB|ripencc|2018-11-22|CLOUVIDER Clouvider - Global ASN, GB
95.216.21.47|24940|95.216.0.0/16|DE|ripencc|2009-02-24|HETZNER-AS, DE
95.216.31.79|24940|95.216.0.0/16|DE|ripencc|2009-02-24|HETZNER-AS, DE
95.216.47.4|24940|95.216.0.0/16|DE|ripencc|2009-02-24|HETZNER-AS, DE
95.25.178.231|8402|95.24.0.0/15|RU|ripencc|2008-10-10|CORBINA-AS OJSC _Vimpelcom_, RU
96.231.145.254|701|96.231.0.0/16|US|arin|2006-12-29|UUNET, US
