# bitcoin dns seeds and whois results
IP Address|ASN|BGP Prefix|CC|Registry|Allocated|AS Name
103.9.174.70|55905|103.9.174.0/24|JP|apnic|2012-05-18|COMZNET2 TOP CLOUD Inc., JP
107.180.73.164|26496|107.180.64.0/19|US|arin|2014-02-11|AS-26496-GO-DADDY-COM-LLC, US
109.12.99.127|15557|109.0.0.0/11|FR|ripencc|2009-08-13|LDCOMNET, FR
114.23.122.174|56030|114.23.0.0/16|NZ|apnic|2011-01-10|VOYAGERNET-AS-AP Voyager Internet Ltd., NZ
116.12.180.236|3758|116.12.128.0/17|SG|apnic|2007-03-27|SINGNET SingNet, SG
120.79.92.64|37963|120.79.0.0/16|CN|apnic|2008-03-27|CNNIC-ALIBABA-CN-NET-AP Hangzhou Alibaba Advertising Co.,Ltd., CN
121.78.223.195|9286|121.78.192.0/18|KR|apnic|2006-06-20|KINXIDC-AS-KR KINX, KR
13.230.125.114|16509|13.230.0.0/15|US|arin|2016-08-09|AMAZON-02, US
139.219.14.180|58593|139.219.0.0/17|CN|apnic|2011-03-08|BLUECLOUD Shanghai Blue Cloud Technology Co.,Ltd, CN
14.192.10.189|135026|14.192.10.0/24|HK|apnic|2016-01-13|THINKDREAM-AS-AP ThinkDream Technology Limited, HK
142.190.28.198|13760|142.190.28.0/23|US|arin|2018-04-10|UNITI-FIBER, US
143.176.224.104|13127|143.176.0.0/16|NL|ripencc|1990-10-01|T-MOBILE AS for the Trans-European T-Mobile IP Transport backbone, NL
144.76.82.166|24940|144.76.0.0/16|DE|ripencc|1990-11-16|HETZNER-AS, DE
151.248.157.162|8821|151.248.128.0/17|CH|ripencc|2012-08-17|TELEZUG WWZ Telekom AG (TELEZUG), CH
152.89.162.39|9009|152.89.162.0/24|RO|ripencc|2019-01-25|M247, GB
156.255.213.198|138195|156.255.213.0/24|SC|afrinic|2015-12-22|MOACKCOLTD-AS-AP MOACK.Co.LTD, KR
157.13.61.69|2907|157.13.0.0/16|JP|apnic|1992-09-03|SINET-AS Research Organization of Information and Systems, National Institute of Informatics, JP
158.174.239.183|8473|158.174.0.0/16|GB|ripencc|1992-03-24|BAHNHOF http://www.bahnhof.net/, SE
160.16.110.6|9370|160.16.0.0/17|JP|apnic|1992-06-10|SAKURA-B SAKURA Internet Inc., JP
164.68.119.129|51167|164.68.118.0/23|DE|ripencc|1992-12-17|CONTABO, DE
172.103.171.91|25668|172.103.128.0/17|CA|arin|2015-06-22|CIPHERKEY, CA
173.215.38.143|5056|173.215.0.0/17|US|arin|2009-12-17|AUREON-5056, US
176.104.54.43|41435|176.104.0.0/18|UA|ripencc|2011-12-20|UNDERNET-AS1, UA
178.191.190.75|8447|178.188.0.0/14|AT|ripencc|2010-02-08|A1TELEKOM-AT A1 Telekom Austria AG, AT
178.236.87.138|42560|178.236.80.0/20|BA|ripencc|2010-06-02|BA-TELEMACH-AS Telemach d.o.o. Sarajevo, BA
178.76.234.182|15774|178.76.234.0/24|RU|ripencc|2010-04-08|TTK-RTL Retail, RU
18.163.2.153|16509|18.163.0.0/16|US|arin|2018-06-29|AMAZON-02, US
18.196.79.108|16509|18.196.0.0/15|US|arin|2018-06-29|AMAZON-02, US
18.215.95.51|14618|18.208.0.0/13|US|arin|2018-06-29|AMAZON-AES, US
18.221.51.155|16509|18.220.0.0/14|US|arin|2018-06-29|AMAZON-02, US
18.228.10.250|16509|18.228.0.0/16|US|arin|2018-06-29|AMAZON-02, US
180.215.214.77|64050|180.215.214.0/24|SG|apnic|2009-10-01|BCPL-SG BGPNET Global ASN, SG
181.52.220.38|10620|181.52.220.0/22|CO|lacnic|2011-05-02|Telmex Colombia S.A., CO
185.248.160.146|43350|185.248.160.0/22|IL|ripencc|2018-03-08|NFORCE, NL
185.52.1.89|198203|185.52.0.0/22|US|ripencc|2014-03-27|ASN-ROUTELABEL, NL
185.64.116.15|31736|185.64.116.0/22|CH|ripencc|2014-07-21|SENSELAN-AS senseLAN GmbH, CH
185.67.101.35|57391|185.67.101.0/24|IR|ripencc|2014-08-14|LASER-IDC, IR
185.8.172.123|60631|185.8.172.0/24|IR|ripencc|2012-11-01|PARVASYSTEM, IR
188.155.210.117|6730|188.154.0.0/15|CH|ripencc|2009-05-08|SUNRISE, CH
188.24.108.129|8708|188.24.0.0/15|RO|ripencc|2009-02-11|RCS-RDS 73-75 Dr. Staicovici, RO
189.241.145.77|8151|189.241.144.0/21|MX|lacnic|2007-09-05|Uninet S.A. de C.V., MX
192.166.219.200|41508|192.166.216.0/22|PL|ripencc|2011-03-03|PL-IWACOM-AS, PL
192.3.185.210|36352|192.3.176.0/20|US|arin|2013-06-07|AS-COLOCROSSING, US
192.42.253.213|200303|192.42.253.0/24|CH|ripencc|2019-11-12|LUMASERV LUMASERV Systems, DE
193.234.50.227|200134|193.234.48.0/22|SE|ripencc|1993-09-01|IPCONNECT, FI
194.14.246.73|50066|194.14.246.0/24|SE|ripencc|1993-12-09|SRSTUBES-AS, SE
195.69.171.177|196797|195.69.171.0/24|RU|ripencc|2009-10-16|CITYTELENET, RU
196.50.196.82|327782|196.50.192.0/18|ZA|afrinic|2017-03-01|METROFIBRE-NETWORX, ZA
197.221.28.59|37153|197.221.0.0/18|ZA|afrinic|2011-06-24|xneelo, ZA
199.188.204.174|22612|199.188.204.0/24|US|arin|2011-08-03|NAMECHEAP-NET, US
205.134.172.4|6405|205.134.160.0/19|US|arin|1995-04-27|AIN, US
208.59.132.133|6079|208.58.0.0/15|US|arin|1999-09-02|RCN-AS, US
212.233.244.196|29582|212.233.244.0/24|BG|ripencc|2008-02-14|SATCOM-AS, BG
212.73.150.21|44901|212.73.150.0/24|CY|ripencc|2004-11-19|BELCLOUD, BG
213.216.229.245|16086|213.216.192.0/18|FI|ripencc|2002-12-20|DNA, FI
216.107.238.165|11524|216.107.224.0/20|US|arin|2000-07-25|SEGNET, US
217.145.94.94|20665|217.145.80.0/20|BG|ripencc|2004-04-06|VARNANET-AS, BG
23.226.90.172|62727|23.226.80.0/20|US|arin|2013-09-12|PLEXICOMM, US
24.2.117.135|7922|24.0.0.0/12|US|arin|2003-10-06|COMCAST-7922, US
3.15.37.142|16509|3.14.0.0/15|US|arin|2017-12-20|AMAZON-02, US
3.228.87.114|14618|3.224.0.0/12|US|arin|2018-06-25|AMAZON-AES, US
31.134.121.223|56668|31.134.120.0/21|UA|ripencc|2011-04-21|SIMNET-UA-AS Kiev, Ukraine, UA
31.17.180.41|3209|31.16.0.0/14|DE|ripencc|2011-03-24|VODANET International IP-Backbone of Vodafone, DE
31.17.70.80|3209|31.16.0.0/14|DE|ripencc|2011-03-24|VODANET International IP-Backbone of Vodafone, DE
34.101.72.24|139190|34.101.0.0/16|US|arin|2018-09-28|GOOGLE-AS-AP Google Asia Pacific Pte. Ltd., SG
34.106.53.91|15169|34.104.0.0/14|US|arin|2018-09-28|GOOGLE, US
34.125.135.83|15169|34.124.0.0/14|US|arin|2018-09-28|GOOGLE, US
34.125.177.239|15169|34.124.0.0/14|US|arin|2018-09-28|GOOGLE, US
34.125.46.3|15169|34.124.0.0/14|US|arin|2018-09-28|GOOGLE, US
34.125.67.59|15169|34.124.0.0/14|US|arin|2018-09-28|GOOGLE, US
35.245.173.118|15169|35.244.0.0/14|US|arin|2017-09-29|GOOGLE, US
44.234.33.234|16509|44.224.0.0/11|US|arin|2019-07-18|AMAZON-02, US
46.171.163.10|5617|46.170.0.0/15|PL|ripencc|2010-12-01|TPNET, PL
46.234.155.92|197722|46.234.128.0/19|ES|ripencc|2011-02-10|TELECABLEANDALUCIA-AS, ES
5.102.146.99|59414|5.102.144.0/21|CH|ripencc|2012-06-27|CLOUDSCALE, CH
5.135.166.43|16276|5.135.0.0/16|FR|ripencc|2012-07-06|OVH, FR
5.150.240.82|8473|5.150.192.0/18|SE|ripencc|2012-07-18|BAHNHOF http://www.bahnhof.net/, SE
5.188.56.54|49505|5.188.56.0/22|RU|ripencc|2012-08-09|SELECTEL, RU
5.9.14.68|24940|5.9.0.0/16|DE|ripencc|2012-04-25|HETZNER-AS, DE
51.77.162.144|16276|51.77.0.0/16|FR|ripencc|1993-09-01|OVH, FR
52.51.128.216|16509|52.48.0.0/14|US|arin|2015-09-02|AMAZON-02, US
62.205.132.245|29632|62.205.128.0/19|GI|ripencc|2008-02-01|NASSIST-AS, GI
62.209.198.65|5588|62.209.192.0/18|CZ|ripencc|2003-01-30|GTSCE GTS Central Europe / Antel Germany, CZ
65.24.37.71|10796|65.24.0.0/17|US|arin|2000-08-22|TWC-10796-MIDWEST, US
68.49.83.73|7922|68.32.0.0/11|US|arin|2001-11-29|COMCAST-7922, US
71.187.229.73|701|71.187.0.0/16|US|arin|2005-06-01|UUNET, US
72.250.184.57|33501|72.250.184.0/24|US|arin|2008-06-25|MTDIGITAL, US
72.50.240.124|393238|72.50.240.0/24|US|arin|2008-03-24|IMONC, US
72.71.251.161|13672|72.71.192.0/18|US|arin|2005-06-24|FAIRPO-3, US
73.119.255.56|7922|73.0.0.0/8|US|arin|2005-04-19|COMCAST-7922, US
76.10.157.54|5645|76.10.128.0/19|CA|arin|2007-02-06|TEKSAVVY, CA
78.143.145.1|35226|78.143.128.0/18|IE|ripencc|2007-08-17|RIPPLECOM-AS, IE
79.133.228.55|21412|79.133.224.0/19|LT|ripencc|2007-10-16|CGATES-AS, LT
80.79.114.34|34702|80.79.112.0/20|EE|ripencc|2005-03-18|WAVECOM-AS, EE
83.135.149.214|8881|83.135.144.0/20|DE|ripencc|2004-01-28|VERSATEL, DE
84.255.244.61|34779|84.255.192.0/18|SI|ripencc|2004-12-14|T-2-AS AS set propagated by T-2 d.o.o., SI
84.92.24.249|6871|84.92.0.0/15|GB|ripencc|2004-05-18|PLUSNET UK Internet Service Provider, GB
85.167.127.116|2119|85.164.0.0/14|NO|ripencc|2004-11-18|TELENOR-NEXTEL Telenor Norge AS, NO
85.212.204.60|12312|85.212.192.0/18|DE|ripencc|2005-02-22|ECOTEL, DE
85.214.166.228|6724|85.214.0.0/15|DE|ripencc|2005-02-24|STRATO STRATO AG, DE
89.230.96.42|21021|89.230.0.0/16|PL|ripencc|2006-04-21|MULTIMEDIA-AS Cable DTV Internet Voice Provider in Poland., PL
89.3.26.46|21502|89.3.0.0/16|FR|ripencc|2006-05-16|ASN-NUMERICABLE, FR
90.146.153.21|12605|90.146.128.0/17|AT|ripencc|2006-11-23|LIWEST-AT Linz, Austria, AT
90.190.253.254|3249|90.190.0.0/15|EE|ripencc|2006-11-14|ESTPAK, EE
92.108.242.45|6830|92.108.0.0/15|NL|ripencc|2007-10-23|LIBERTYGLOBAL Liberty Global (formerly UPC Broadband Holding, aka AORTA), NL
92.201.71.133|20676|92.200.0.0/15|DE|ripencc|2007-10-17|PLUSNET *****************, DE
94.142.235.140|48926|94.142.232.0/21|CZ|ripencc|2009-01-14|PE3NY-AS, CZ
94.228.214.5|47869|94.228.208.0/20|NL|ripencc|2008-11-06|NETROUTING-AS, NL
94.52.112.227|48161|94.52.112.0/23|RO|ripencc|2008-06-17|NG-AS Sos. Bucuresti - Ploiesti nr. 42-44, RO
95.143.218.179|29124|95.143.208.0/20|RU|ripencc|2009-09-08|ISKRATELECOM-AS SEVEN-SKY, RU
95.211.174.137|60781|95.211.0.0/16|NL|ripencc|2009-02-05|LEASEWEB-NL-AMS-01 Netherlands, NL
95.216.53.163|24940|95.216.0.0/16|DE|ripencc|2009-02-24|HETZNER-AS, DE
95.217.180.216|24940|95.217.0.0/16|DE|ripencc|2009-02-24|HETZNER-AS, DE
95.217.78.80|24940|95.217.0.0/16|DE|ripencc|2009-02-24|HETZNER-AS, DE
96.47.114.108|397122|96.47.112.0/20|US|arin|2009-11-17|NORVADO-NET, US
