# bitcoin dns seeds and whois results
IP Address|ASN|BGP Prefix|CC|Registry|Allocated|AS Name
102.132.245.16|37680|102.132.240.0/20|ZA|afrinic|2018-07-04|COOL-IDEAS, ZA
104.162.213.245|12271|104.162.0.0/16|US|arin|2014-07-28|TWC-12271-NYC, US
106.14.241.0|37963|106.14.0.0/16|CN|apnic|2011-03-22|CNNIC-ALIBABA-CN-NET-AP Hangzhou Alibaba Advertising Co.,Ltd., CN
107.2.139.165|7922|107.0.0.0/14|US|arin|2010-06-29|COMCAST-7922, US
108.5.127.251|701|108.5.0.0/16|US|arin|2009-06-05|UUNET, US
108.61.215.110|20473|108.61.215.0/24|US|arin|2010-12-08|AS-CHOOPA, US
109.201.140.50|43350|109.201.128.0/19|NL|ripencc|2010-02-12|NFORCE, NL
111.90.140.207|45839|111.90.140.0/24|MY|apnic|2009-06-17|SHINJIRU-MY-AS-AP Shinjiru Technology Sdn Bhd, MY
122.199.0.104|38195|122.199.0.0/24|AU|apnic|2006-09-19|SUPERLOOP-AS-AP Superloop, AU
13.53.36.154|16509|13.53.0.0/16|US|arin|2020-08-05|AMAZON-02, US
135.181.165.144|24940|135.181.0.0/16|DE|ripencc|1996-04-30|HETZNER-AS, DE
138.201.101.22|24940|138.201.0.0/16|DE|ripencc|1990-05-23|HETZNER-AS, DE
143.159.73.171|6871|143.159.0.0/16|US|arin|1990-09-26|PLUSNET UK Internet Service Provider, GB
145.14.24.59|2586|145.14.16.0/20|EE|ripencc|1993-09-01|UNINET-AS Sopruse pst 145, EE
146.52.61.100|3209|146.52.0.0/16|DE|ripencc|2011-07-07|VODANET International IP-Backbone of Vodafone, DE
147.83.72.199|13041|147.83.0.0/16|ES|ripencc|1991-07-16|CESCA-AC, ES
148.66.57.202|45753|148.66.57.0/24|HK|apnic|1991-04-11|NETSEC-HK NETSEC, HK
157.175.52.117|16509|157.175.0.0/16|US|arin|2017-12-28|AMAZON-02, US
162.243.173.29|14061|162.243.160.0/20|US|arin|2013-09-06|DIGITALOCEAN-ASN, US
163.172.214.148|12876|163.172.208.0/20|GB|ripencc|1992-02-14|Online SAS, FR
168.119.158.58|24940|168.119.0.0/16|DE|ripencc|1994-04-05|HETZNER-AS, DE
173.249.5.217|51167|173.249.4.0/23|DE|ripencc|2010-05-26|CONTABO, DE
176.104.16.58|41435|176.104.0.0/18|UA|ripencc|2011-12-20|UNDERNET-AS1, UA
178.128.91.117|14061|178.128.80.0/20|US|ripencc|2010-03-03|DIGITALOCEAN-ASN, US
178.236.87.138|42560|178.236.80.0/20|BA|ripencc|2010-06-02|BA-TELEMACH-AS Telemach d.o.o. Sarajevo, BA
178.49.120.199|31200|178.49.0.0/17|RU|ripencc|2009-12-28|NTK IPv6 customers, RU
18.162.46.146|16509|18.162.0.0/16|US|arin|2019-10-07|AMAZON-02, US
18.229.148.50|16509|18.229.0.0/16|US|arin|2019-10-07|AMAZON-02, US
185.16.238.104|199419|185.16.238.0/24|TR|ripencc|2013-01-25|LIMONHOST, TR
185.169.243.125|60016|185.169.240.0/22|CH|ripencc|2016-09-27|ASFS3, CH
185.181.176.246|206591|185.181.176.0/24|CZ|ripencc|2016-12-12|ALZACZ-AS, CZ
185.210.224.102|49432|185.210.224.0/24|AT|ripencc|2017-06-29|SCHALLERT-AS schallert.com e.U., AT
185.232.71.18|197540|185.232.68.0/22|AT|ripencc|2017-11-16|NETCUP-AS netcup GmbH, DE
185.75.117.124|48926|185.75.116.0/22|CZ|ripencc|2014-10-31|PE3NY-AS, CZ
185.98.191.188|35575|185.98.191.0/24|GB|ripencc|2015-05-01|VAIONI, GB
188.26.196.193|57269|188.26.192.0/21|RO|ripencc|2009-02-11|DIGISPAINTELECOM, ES
188.98.159.52|3209|188.96.0.0/12|DE|ripencc|2009-01-20|VODANET International IP-Backbone of Vodafone, DE
190.177.53.181|22927|190.176.0.0/15|AR|lacnic|2008-03-11|Telefonica de Argentina, AR
193.219.38.56|2847|193.219.32.0/21|LT|ripencc|1994-04-01|LITNET, LT
194.124.41.28|42160|194.124.41.0/24|RU|ripencc|2018-10-31|LCPDCO LCP AS dc oostkamp, BE
194.14.246.86|50066|194.14.246.0/24|SE|ripencc|1993-12-09|SRSTUBES-AS, SE
194.145.199.26|34715|194.145.199.0/24|UA|ripencc|2005-03-21|AMRON-AS, UA
195.216.214.27|25057|195.216.214.0/23|FR|ripencc|2008-02-01|PLOPNET, FR
195.8.105.201|12592|195.8.105.0/24|RO|ripencc|2005-01-18|TTS Bucharest, Biharia 67-77, RO
198.137.202.175|7247|198.137.202.0/24|US|arin|1993-05-17|MOJO, US
199.247.249.188|18988|199.247.240.0/20|CA|arin|2017-06-07|CITYWEST-CORP, CA
2.44.244.130|30722|2.44.224.0/19|IT|ripencc|2010-04-29|VODAFONE-IT-ASN, IT
202.112.51.84|23910|202.112.51.0/24|CN|apnic|1995-09-21|CNGI-CERNET2-AS-AP China Next Generation Internet CERNET2, CN
203.11.71.1|45447|203.11.71.0/24|AU|apnic|1994-12-23|YLESS4U-AS-AP YLess4U Regional Broadband, AU
204.15.11.35|13331|204.15.8.0/21|US|arin|2015-03-02|METAPEER-INC, US
213.178.28.118|29413|213.178.16.0/20|DE|ripencc|1999-12-15|KOMRO-AS Komro Telekommunikations GmbH, DE
216.107.238.165|11524|216.107.224.0/20|US|arin|2000-07-25|SEGNET, US
217.26.47.10|197312|217.26.47.0/24|CH|ripencc|2000-10-16|BSOURCE-AS, CH
222.186.150.130|23650|222.186.150.0/24|CN|apnic|2004-02-23|CHINANET-JIANGSU-PROVINCE-IDC AS Number for CHINANET jiangsu province backbone, CN
34.87.70.59|15169|34.84.0.0/14|US|arin|2018-09-28|GOOGLE, US
34.94.187.145|15169|34.92.0.0/14|US|arin|2018-09-28|GOOGLE, US
34.97.173.26|15169|34.97.128.0/17|US|arin|2018-09-28|GOOGLE, US
34.97.79.59|15169|34.97.0.0/17|US|arin|2018-09-28|GOOGLE, US
35.181.9.180|16509|35.181.0.0/16|US|arin|2016-08-09|AMAZON-02, US
35.223.167.122|15169|35.220.0.0/14|US|arin|2017-09-29|GOOGLE, US
37.143.116.43|48926|37.143.112.0/21|CZ|ripencc|2012-03-02|PE3NY-AS, CZ
37.150.24.42|9198|37.150.16.0/20|KZ|ripencc|2012-03-06|KAZTELECOM-AS, KZ
37.191.243.119|57963|37.191.128.0/17|NO|ripencc|2012-03-21|LYNET-INTERNETT-AS, NO
37.229.25.145|15895|37.229.0.0/16|UA|ripencc|2012-04-10|KSNET-AS, UA
37.59.38.74|16276|37.59.0.0/16|FR|ripencc|2012-01-16|OVH, FR
46.210.5.106|1680|46.210.0.0/16|IL|ripencc|2010-12-15|NV-ASN CELLCOM ltd., IL
46.4.116.12|24940|46.4.0.0/16|DE|ripencc|2010-08-19|HETZNER-AS, DE
46.59.40.91|8473|46.59.0.0/17|SE|ripencc|2010-10-19|BAHNHOF http://www.bahnhof.net/, SE
46.8.181.132|137443|46.8.180.0/22|CZ|ripencc|2010-09-07|ANCHGLOBAL-AS-AP Anchnet Asia Limited, HK
47.113.95.224|37963|47.113.0.0/16|CN|apnic|1989-01-06|CNNIC-ALIBABA-CN-NET-AP Hangzhou Alibaba Advertising Co.,Ltd., CN
47.75.116.211|45102|47.75.0.0/17|US|arin|2016-03-17|CNNIC-ALIBABA-US-NET-AP Alibaba (US) Technology Co., Ltd., CN
47.90.138.209|45102|47.90.128.0/18|US|arin|2015-05-18|CNNIC-ALIBABA-US-NET-AP Alibaba (US) Technology Co., Ltd., CN
5.189.150.28|51167|5.189.144.0/20|DE|ripencc|2012-08-09|CONTABO, DE
5.9.67.183|24940|5.9.0.0/16|DE|ripencc|2012-04-25|HETZNER-AS, DE
5.9.88.71|24940|5.9.0.0/16|DE|ripencc|2012-04-25|HETZNER-AS, DE
5.9.93.204|24940|5.9.0.0/16|DE|ripencc|2012-04-25|HETZNER-AS, DE
51.159.38.93|12876|51.158.0.0/15|FR|ripencc|1993-09-01|Online SAS, FR
51.77.52.201|16276|51.77.0.0/16|FR|ripencc|1993-09-01|OVH, FR
54.37.253.178|16276|54.37.0.0/16|FR|ripencc|1992-03-17|OVH, FR
61.164.127.140|4134|61.164.0.0/16|CN|apnic|2000-10-11|CHINANET-BACKBONE No.31,Jin-rong Street, CN
61.250.91.26|9848|61.250.64.0/18|KR|apnic|2001-03-21|SEJONGTELECOM-AS-KR Sejong Telecom, KR
62.210.103.45|12876|62.210.0.0/16|FR|ripencc|2000-10-26|Online SAS, FR
64.15.145.102|32613|64.15.128.0/19|CA|arin|2005-11-07|IWEB-AS, CA
66.160.128.215|6939|66.160.128.0/18|US|arin|2003-10-09|HURRICANE, US
69.61.103.44|22653|69.61.0.0/17|US|arin|2003-07-08|GLOBALCOMPASS, US
70.123.125.237|11427|70.122.0.0/15|US|arin|2004-09-17|TWC-11427-TEXAS, US
72.253.236.217|36149|72.253.0.0/16|US|arin|2006-08-28|HAWAIIAN-TELCOM, US
72.53.134.182|11814|72.53.128.0/20|CA|arin|2005-07-29|DISTRIBUTEL-AS11814, CA
74.213.232.246|14978|74.213.232.0/24|US|arin|2008-05-01|CSSBB, US
74.51.145.135|16895|74.51.144.0/21|US|arin|2008-07-31|SAN-BRUNO-CABLE, US
77.247.178.130|43350|77.247.176.0/21|NL|ripencc|2007-06-26|NFORCE, NL
78.102.79.63|6830|78.102.0.0/16|CZ|ripencc|2007-06-04|LIBERTYGLOBAL Liberty Global (formerly UPC Broadband Holding, aka AORTA), NL
78.129.221.31|20860|78.129.128.0/17|GB|ripencc|2007-04-18|IOMART-AS, GB
78.46.140.12|24940|78.46.0.0/15|DE|ripencc|2007-04-16|HETZNER-AS, DE
78.58.140.102|8764|78.58.128.0/20|LT|ripencc|2007-03-21|TELIA-LIETUVA, LT
79.234.92.96|3320|79.192.0.0/10|DE|ripencc|2007-06-06|DTAG Internet service provider operations, DE
8.210.177.89|45102|8.210.128.0/17|SG|apnic|1992-12-01|CNNIC-ALIBABA-US-NET-AP Alibaba (US) Technology Co., Ltd., CN
8.9.6.229|20473|8.9.6.0/24|US|arin|1992-12-01|AS-CHOOPA, US
80.241.211.241|51167|80.241.210.0/23|DE|ripencc|2011-02-14|CONTABO, DE
80.78.248.25|197695|80.78.248.0/24|RU|ripencc|2010-05-07|AS-REG, RU
82.160.215.7|20960|82.160.0.0/16|PL|ripencc|2003-07-01|TKTELEKOM-AS, PL
82.221.128.81|50613|82.221.128.0/19|IS|ripencc|2003-12-11|THORDC-AS, IS
82.65.42.106|12322|82.64.0.0/14|FR|ripencc|2003-04-03|PROXAD, FR
84.22.114.15|196752|84.22.96.0/19|NL|ripencc|2004-09-21|TILAA, NL
85.240.136.169|3243|85.240.0.0/13|PT|ripencc|2004-01-03|MEO-RESIDENCIAL, PT
87.65.195.214|5432|87.64.0.0/14|BE|ripencc|2005-05-19|PROXIMUS-ISP-AS, BE
89.152.229.14|2860|89.152.192.0/18|PT|ripencc|2006-02-07|NOS_COMUNICACOES, PT
89.244.183.112|8881|89.244.176.0/20|DE|ripencc|2006-05-04|VERSATEL, DE
91.204.149.5|42765|91.204.148.0/22|RU|ripencc|2008-06-23|INFOTECH-LINER-AS, RU
91.224.59.14|50833|91.224.59.0/24|CZ|ripencc|2011-02-02|FIBERTEL-AS # upstreams, CZ
92.193.249.217|20676|92.192.0.0/13|DE|ripencc|2007-10-17|PLUSNET *****************, DE
93.123.180.164|35539|93.123.128.0/17|RU|ripencc|2008-03-07|INFOLINK-T-AS Moscow, Russia, RU
93.189.145.169|12555|93.189.144.0/21|RU|ripencc|2008-05-02|IMAQLIQ https://iqdata.center, RU
94.199.173.120|48362|94.199.168.0/21|AT|ripencc|2008-11-17|TKSWF-AS, AT
95.216.47.4|24940|95.216.0.0/16|DE|ripencc|2009-02-24|HETZNER-AS, DE
95.217.62.121|24940|95.217.0.0/16|DE|ripencc|2009-02-24|HETZNER-AS, DE
95.217.78.80|24940|95.217.0.0/16|DE|ripencc|2009-02-24|HETZNER-AS, DE
