# bitcoin dns seeds and whois results
IP Address|ASN|BGP Prefix|CC|Registry|Allocated|AS Name
1.9.114.132|4788|1.9.0.0/16|MY|apnic|2010-06-10|TMNET-AS-AP TM Net, Internet Service Provider, MY
104.236.142.204|14061|104.236.128.0/18|US|arin|2014-10-28|DIGITALOCEAN-ASN, US
104.248.246.94|14061|104.248.240.0/20|US|arin|2018-08-06|DIGITALOCEAN-ASN, US
107.181.189.34|46562|107.181.189.0/24|US|arin|2014-02-14|PERFORMIVE, US
109.201.142.116|43350|109.201.128.0/19|NL|ripencc|2010-02-12|NFORCE, NL
121.89.193.102|37963|121.89.128.0/17|CN|apnic|2006-06-29|CNNIC-ALIBABA-CN-NET-AP Hangzhou Alibaba Advertising Co.,Ltd., CN
13.88.177.3|8075|13.64.0.0/11|US|arin|2015-03-26|MICROSOFT-CORP-MSN-AS-BLOCK, US
130.83.160.187|8365|130.83.0.0/16|DE|ripencc|1988-06-30|MANDA, DE
138.201.19.159|24940|138.201.0.0/16|DE|ripencc|1990-05-23|HETZNER-AS, DE
139.159.152.237|55990|139.159.144.0/20|CN|apnic|2011-03-09|HWCSNET Huawei Cloud Service data center, CN
143.110.216.174|14061|143.110.208.0/20|US|arin|2020-01-17|DIGITALOCEAN-ASN, US
145.249.245.223|21299|145.249.245.0/24|RU|ripencc|1993-09-13|KAR-TEL-AS Almaty, Republic of Kazakhstan, KZ
149.202.192.164|16276|149.202.0.0/16|FR|ripencc|1999-04-26|OVH, FR
15.161.92.197|16509|15.161.0.0/16|US|arin|2018-09-27|AMAZON-02, US
15.188.90.0|16509|15.188.0.0/16|US|arin|2018-09-27|AMAZON-02, US
150.131.192.215|3807|150.131.0.0/16|US|arin|1991-09-12|UMTNET-ASN, US
151.248.168.243|8821|151.248.128.0/17|CH|ripencc|2012-08-17|TELEZUG WWZ Telekom AG (TELEZUG), CH
157.230.249.202|14061|157.230.240.0/20|US|arin|2018-08-22|DIGITALOCEAN-ASN, US
158.175.132.168|36351|158.175.128.0/18|US|ripencc|1992-03-24|SOFTLAYER, US
159.65.187.247|14061|159.65.176.0/20|US|arin|2017-10-24|DIGITALOCEAN-ASN, US
168.61.55.120|8075|168.61.0.0/16|US|arin|2011-06-22|MICROSOFT-CORP-MSN-AS-BLOCK, US
173.215.38.143|5056|173.215.0.0/17|US|arin|2009-12-17|AUREON-5056, US
173.249.48.175|51167|173.249.48.0/23|DE|ripencc|2010-05-26|CONTABO, DE
176.206.104.63|1267|176.206.0.0/16|IT|ripencc|2011-09-05|ASN-WINDTRE IUNET, IT
176.223.137.37|62282|176.223.128.0/20|LT|ripencc|2011-11-29|RACKRAY UAB Rakrejus, LT
176.74.136.237|35613|176.74.128.0/19|CZ|ripencc|2011-06-15|NETDATACOMM, CZ
178.236.87.138|42560|178.236.80.0/20|BA|ripencc|2010-06-02|BA-TELEMACH-AS Telemach d.o.o. Sarajevo, BA
178.63.65.15|24940|178.63.0.0/16|DE|ripencc|2010-03-02|HETZNER-AS, DE
185.104.141.4|200519|185.104.140.0/22|DE|ripencc|2015-06-12|NYNEX NYNEX FIBER, DE
185.156.179.233|59504|185.156.178.0/23|RU|ripencc|2016-06-20|Hosting vpsville.ru, RU
185.173.92.119|57494|185.173.92.0/22|RU|ripencc|2016-10-17|ADMAN-AS, RU
185.19.29.110|61098|185.19.28.0/22|CH|ripencc|2013-02-19|EXOSCALE, CH
185.56.81.8|200699|185.56.81.0/24|SC|ripencc|2014-05-01|Datashield, Inc., SC
185.80.219.132|59702|185.80.216.0/22|SE|ripencc|2014-12-10|JUNET, SE
188.122.2.55|49743|188.122.0.0/20|PL|ripencc|2009-05-14|FINEMEDIA-WROCLAW, PL
188.124.181.6|34999|188.124.160.0/19|PL|ripencc|2009-06-26|PROINTERNET-AS ul. Leborska 23B, PL
188.134.74.188|41733|188.134.0.0/17|RU|ripencc|2009-04-27|ZTELECOM-AS, RU
188.251.196.56|3243|188.250.0.0/15|PT|ripencc|2011-02-10|MEO-RESIDENCIAL, PT
193.168.147.25|62000|193.168.146.0/23|FR|ripencc|2018-12-11|NETRIX-AS Netrix, FR
193.29.13.84|42397|193.29.13.0/24|RO|ripencc|2018-04-25|***************************************, RO
194.135.135.69|25227|194.135.135.0/24|RU|ripencc|1995-02-06|ASN-AVANTEL-MSK Located in Moscow, Russia., RU
194.146.200.51|42574|194.146.200.0/24|RU|ripencc|2008-07-08|NSPLUS-AS, RU
194.166.33.176|1901|194.166.0.0/16|AT|ripencc|1998-02-17|EUNETAT-AS A1 Telekom Austria AG, AT
195.114.9.19|48551|195.114.9.0/24|IR|ripencc|2019-11-05|SINDAD, IR
195.88.121.113|48969|195.88.120.0/23|RU|ripencc|2009-03-09|PARUS-TELECOM-AS, RU
198.144.141.16|55900|198.144.128.0/20|JP|apnic|1999-12-03|GLBB-JP GLBB Japan KK, JP
2.26.38.161|12576|2.26.0.0/16|GB|ripencc|2010-09-21|EE Ltd, GB
2.39.173.126|30722|2.39.128.0/17|IT|ripencc|2010-04-29|VODAFONE-IT-ASN, IT
2.96.22.155|13285|2.96.0.0/15|GB|ripencc|2010-04-21|OPALTELECOM-AS TalkTalk Communications Limited, GB
202.55.87.45|18106|202.55.64.0/19|SG|apnic|2000-08-07|VIEWQWEST-SG-AP Viewqwest Pte Ltd, SG
204.111.241.195|4922|204.111.128.0/17|US|arin|1995-05-03|SHENTEL, US
207.255.193.47|11776|207.255.193.0/24|US|arin|2004-06-14|ATLANTICBB-JOHNSTOWN, US
208.93.231.240|29893|208.93.230.0/23|US|arin|2011-04-18|CHATANGO, US
212.51.156.131|13030|212.51.144.0/20|CH|ripencc|2008-05-06|INIT7, CH
217.172.244.9|21021|217.172.224.0/19|PL|ripencc|2002-06-25|MULTIMEDIA-AS Cable DTV Internet Voice Provider in Poland., PL
222.237.76.118|9318|222.232.0.0/13|KR|apnic|2004-04-02|SKB-AS SK Broadband Co Ltd, KR
24.103.166.34|11351|24.103.128.0/18|US|arin|2008-03-11|TWC-11351-NORTHEAST, US
24.237.101.250|8047|24.237.0.0/16|US|arin|1997-10-14|GCI, US
27.32.42.128|7545|27.32.42.0/24|AU|apnic|2010-03-18|TPG-INTERNET-AP TPG Telecom Limited, AU
3.112.50.156|16509|3.112.0.0/14|US|arin|2017-12-20|AMAZON-02, US
3.208.33.179|14618|3.208.0.0/12|US|arin|2018-06-25|AMAZON-AES, US
3.81.144.22|14618|3.80.0.0/12|US|arin|2017-12-20|AMAZON-AES, US
3.96.170.113|16509|3.96.0.0/15|US|arin|2017-12-20|AMAZON-02, US
34.101.167.102|139190|34.101.0.0/16|US|arin|2018-09-28|GOOGLE-AS-AP Google Asia Pacific Pte. Ltd., SG
34.126.120.20|15169|34.124.0.0/14|US|arin|2018-09-28|GOOGLE, US
34.241.176.144|16509|34.240.0.0/13|US|arin|2016-09-12|AMAZON-02, US
34.97.110.74|15169|34.97.0.0/17|US|arin|2018-09-28|GOOGLE, US
34.97.134.215|15169|34.97.128.0/17|US|arin|2018-09-28|GOOGLE, US
35.198.108.134|15169|35.198.0.0/16|US|arin|2017-03-21|GOOGLE, US
35.228.132.48|15169|35.228.0.0/14|US|arin|2017-09-29|GOOGLE, US
35.240.7.194|15169|35.240.0.0/14|US|arin|2017-09-29|GOOGLE, US
46.229.168.201|39572|46.229.168.0/24|NL|ripencc|2011-02-17|ADVANCEDHOSTERS-AS, NL
46.42.18.54|44507|46.42.16.0/21|RU|ripencc|2010-08-04|KMTN-AS, RU
46.44.166.125|28685|46.44.128.0/18|NL|ripencc|2010-08-27|ASN-ROUTIT, NL
5.135.179.60|16276|5.135.0.0/16|FR|ripencc|2012-07-06|OVH, FR
5.9.110.50|24940|5.9.0.0/16|DE|ripencc|2012-04-25|HETZNER-AS, DE
50.53.250.162|27017|50.53.0.0/16|US|arin|2010-09-24|ZIPLY-FIBER-LEGACY-ASN, US
51.89.235.94|16276|51.89.0.0/16|FR|ripencc|1993-09-01|OVH, FR
63.224.37.3|209|63.224.32.0/21|US|arin|1999-06-07|CENTURYLINK-US-LEGACY-QWEST, US
64.98.64.248|32133|64.98.64.0/20|CA|arin|2000-05-18|AS-TING-BACKBONE, US
66.234.211.82|11404|66.234.192.0/19|US|arin|2002-03-01|AS-WAVE-1, US
73.207.112.3|7922|73.0.0.0/8|US|arin|2005-04-19|COMCAST-7922, US
73.209.116.239|7922|73.0.0.0/8|US|arin|2005-04-19|COMCAST-7922, US
74.92.155.101|7922|74.92.0.0/14|US|arin|2006-05-18|COMCAST-7922, US
75.87.129.134|11427|75.87.128.0/18|US|arin|2006-07-19|TWC-11427-TEXAS, US
77.34.116.236|12389|77.34.96.0/19|RU|ripencc|2007-01-24|ROSTELECOM-AS, RU
77.58.104.89|6830|77.58.0.0/15|CH|ripencc|2006-10-19|LIBERTYGLOBAL Liberty Global (formerly UPC Broadband Holding, aka AORTA), NL
78.143.145.1|35226|78.143.128.0/18|IE|ripencc|2007-08-17|RIPPLECOM-AS, IE
78.19.185.102|2110|78.16.0.0/14|IE|ripencc|2007-04-04|AS-BTIRE BT Ireland was previously known as Esat Net, EUnet Ireland & IEUnet., IE
78.199.108.157|12322|78.192.0.0/11|FR|ripencc|2007-03-15|PROXAD, FR
78.26.180.80|34187|78.26.128.0/18|UA|ripencc|2007-08-29|RENOME-AS, UA
78.84.115.146|12578|78.84.0.0/16|LV|ripencc|2007-04-18|APOLLO-AS Latvia, LV
79.114.141.73|8708|79.112.0.0/14|RO|ripencc|2007-05-29|RCS-RDS 73-75 Dr. Staicovici, RO
8.210.162.171|45102|8.210.128.0/17|SG|apnic|1992-12-01|CNNIC-ALIBABA-US-NET-AP Alibaba (US) Technology Co., Ltd., CN
8.210.74.141|45102|8.210.0.0/17|SG|apnic|1992-12-01|CNNIC-ALIBABA-US-NET-AP Alibaba (US) Technology Co., Ltd., CN
8.38.89.152|13886|8.38.89.0/24|US|arin|1992-12-01|CLOUD-SOUTH, US
80.249.1.140|137549|80.249.0.0/20|AU|apnic|2001-11-20|NODE1-AS-AP NODE1 Pty Ltd, AU
81.0.198.25|21430|81.0.198.0/24|CZ|ripencc|2001-12-14|WIA-AS, CZ
83.242.96.22|50955|83.242.96.0/24|RU|ripencc|2012-03-12|AHOST-AS, RU
84.43.181.174|21230|84.43.160.0/19|BG|ripencc|2004-09-15|MNET-, BG
85.17.170.22|60781|85.17.0.0/16|NL|ripencc|2005-03-11|LEASEWEB-NL-AMS-01 Netherlands, NL
85.214.242.199|6724|85.214.0.0/15|DE|ripencc|2005-02-24|STRATO STRATO AG, DE
87.14.81.46|3269|87.14.0.0/15|IT|ripencc|2005-07-13|ASN-IBSNAZ, IT
87.206.227.194|6830|87.206.0.0/16|PL|ripencc|2005-07-11|LIBERTYGLOBAL Liberty Global (formerly UPC Broadband Holding, aka AORTA), NL
88.147.244.250|12389|88.147.128.0/17|RU|ripencc|2006-01-11|ROSTELECOM-AS, RU
88.86.243.241|48432|88.86.240.0/20|FR|ripencc|2006-02-15|SCGS-AS, FR
89.108.126.228|197695|89.108.126.0/24|RU|ripencc|2006-03-20|AS-REG, RU
89.239.99.102|31608|89.239.96.0/19|PL|ripencc|2007-05-25|GAWEX-AS Plac Wolnosci 11 Szczecinek, PL
91.219.25.232|50448|91.219.24.0/22|RU|ripencc|2010-09-02|SYSTEM-SERVICE-AS, RU
91.236.141.219|51341|91.236.141.0/24|RU|ripencc|2012-03-07|GCS-AS, RU
91.97.206.190|9145|91.96.0.0/15|DE|ripencc|2006-08-30|EWETEL Cloppenburger Strasse 310, DE
93.190.138.3|49981|93.190.136.0/22|NL|ripencc|2008-05-16|WORLDSTREAM, NL
94.158.246.250|39798|94.158.246.0/24|MD|ripencc|2018-08-28|MIVOCLOUD, MD
94.23.51.183|16276|94.23.0.0/16|FR|ripencc|2008-07-15|OVH, FR
95.215.19.22|39287|95.215.16.0/22|FI|ripencc|2009-02-10|ABSTRACT, FI
95.216.226.218|24940|95.216.0.0/16|DE|ripencc|2009-02-24|HETZNER-AS, DE
95.216.41.228|24940|95.216.0.0/16|DE|ripencc|2009-02-24|HETZNER-AS, DE
95.217.121.13|24940|95.217.0.0/16|DE|ripencc|2009-02-24|HETZNER-AS, DE
95.69.249.63|20850|95.69.248.0/22|UA|ripencc|2008-11-19|VALORKIEV-AS Kharkov, Ukraine, UA
