# bitcoin dns seeds and whois results
IP Address|ASN|BGP Prefix|CC|Registry|Allocated|AS Name
103.14.244.190|24482|103.14.244.0/23|SG|apnic|2012-08-13|SGGS-AS-AP SG.GS, SG
104.238.176.16|20473|104.238.176.0/23|US|arin|2014-11-13|AS-CHOOPA, US
105.233.37.163|36874|105.233.0.0/17|ZA|afrinic|2012-08-01|Cybersmart, ZA
108.199.239.172|7018|108.192.0.0/10|US|arin|2011-01-12|ATT-INTERNET4, US
13.124.217.71|16509|13.124.0.0/16|US|arin|2016-08-09|AMAZON-02, US
139.59.80.147|14061|139.59.80.0/20|SG|apnic|1990-06-27|DIGITALOCEAN-ASN, US
140.123.97.115|1659|140.112.0.0/12|TW|apnic|1990-03-24|ERX-TANET-ASN1 Taiwan Academic Network (TANet) Information Center, TW
148.74.194.80|6128|148.74.0.0/15|US|arin|2015-05-14|CABLE-NET-1, US
157.245.140.86|14061|157.245.128.0/20|US|arin|2019-05-09|DIGITALOCEAN-ASN, US
162.0.227.54|22612|162.0.227.0/24|US|arin|2020-04-03|NAMECHEAP-NET, US
162.0.227.56|22612|162.0.227.0/24|US|arin|2020-04-03|NAMECHEAP-NET, US
165.22.110.45|14061|165.22.96.0/20|US|arin|2018-10-16|DIGITALOCEAN-ASN, US
166.70.94.106|6315|166.70.0.0/16|US|arin|1997-02-19|XMISSION, US
173.212.253.137|51167|173.212.252.0/23|DE|ripencc|2009-10-26|CONTABO, DE
174.138.40.233|14061|174.138.32.0/20|US|arin|2016-04-12|DIGITALOCEAN-ASN, US
176.9.143.74|24940|176.9.0.0/16|DE|ripencc|2011-05-17|HETZNER-AS, DE
176.9.78.227|24940|176.9.0.0/16|DE|ripencc|2011-05-17|HETZNER-AS, DE
177.38.215.73|262411|177.38.215.0/24|BR|lacnic|2011-11-16|Force Telecom Ltda, BR
178.236.87.138|42560|178.236.80.0/20|BA|ripencc|2010-06-02|BA-TELEMACH-AS Telemach d.o.o. Sarajevo, BA
178.32.216.133|16276|178.32.0.0/15|FR|ripencc|2010-01-19|OVH, FR
178.62.87.120|14061|178.62.64.0/18|US|ripencc|2010-02-26|DIGITALOCEAN-ASN, US
179.225.132.111|26599|179.224.0.0/15|BR|lacnic|2012-11-14|TELEFONICA BRASIL S.A, BR
18.177.144.21|16509|18.176.0.0/15|US|arin|2019-10-07|AMAZON-02, US
182.55.245.25|4657|182.55.245.0/24|SG|apnic|2010-03-01|STARHUB-INTERNET StarHub Ltd, SG
185.145.129.155|204196|185.145.128.0/22|NL|ripencc|2016-04-01|ABELOHOST, NL
185.176.223.32|39845|185.176.223.0/24|LV|ripencc|2016-11-08|LV-2CLOUD-ASN16, LV
185.233.148.146|60118|185.233.148.0/22|RO|ripencc|2017-11-24|CYBERSMARTSOLUTIONS-AS, RO
185.8.104.152|16125|185.8.104.0/23|LT|ripencc|2012-10-30|CHERRYSERVERS1-AS, LT
186.193.204.6|262730|186.193.192.0/20|BR|lacnic|2010-04-06|Byteweb Comunicacao Multimidia Ltda., BR
192.227.80.83|13886|192.227.80.0/22|US|arin|2017-01-30|CLOUD-SOUTH, US
195.211.161.124|44341|195.211.161.0/24|RU|ripencc|2009-10-20|SEVONLINE, RU
200.7.173.110|27828|200.7.173.0/24|BO|lacnic|2006-03-07|UNIVERSIDAD MAYOR DE SAN ANDRES, BO
206.123.139.139|50867|206.123.139.0/24|US|arin|2015-03-09|HOSTKEY-RU-AS, NL
209.97.189.48|14061|209.97.176.0/20|US|arin|1997-07-03|DIGITALOCEAN-ASN, US
212.227.211.87|8560|212.227.0.0/16|DE|ripencc|1998-09-10|IONOS-AS This is the joint network for IONOS, Fasthosts, Arsys, 1&1 Mail and Media and 1&1 Telecom. Formerly known as 1&1 Internet SE., DE
213.219.144.164|9031|213.219.128.0/18|BE|ripencc|2000-08-30|EDPNET, BE
213.239.201.46|24940|213.239.192.0/18|DE|ripencc|2003-05-28|HETZNER-AS, DE
24.205.215.192|20115|24.205.208.0/20|US|arin|2001-06-01|CHARTER-20115, US
3.112.22.239|16509|3.112.0.0/14|US|arin|2017-12-20|AMAZON-02, US
31.16.217.18|3209|31.16.0.0/14|DE|ripencc|2011-03-24|VODANET International IP-Backbone of Vodafone, DE
31.179.204.142|201046|31.179.204.0/24|PL|ripencc|2011-03-22|TRAFCOM_NET, PL
34.234.208.165|14618|34.224.0.0/12|US|arin|2016-09-12|AMAZON-AES, US
34.65.71.81|15169|34.64.0.0/14|US|arin|2018-09-28|GOOGLE, US
34.97.78.39|15169|34.97.0.0/17|US|arin|2018-09-28|GOOGLE, US
34.97.79.59|15169|34.97.0.0/17|US|arin|2018-09-28|GOOGLE, US
40.121.70.33|8075|40.120.0.0/14|US|arin|2015-02-23|MICROSOFT-CORP-MSN-AS-BLOCK, US
45.151.125.238|212663|45.151.125.0/24|PL|ripencc|2019-09-10|REMOTE-ADMIN-AS, PL
46.28.132.34|39586|46.28.128.0/21|RU|ripencc|2010-07-22|SATURNTELECOM, RU
46.28.207.31|197988|46.28.200.0/21|CH|ripencc|2011-08-05|SOLARCOM, CH
47.253.5.99|45102|47.253.0.0/17|US|arin|2016-04-15|CNNIC-ALIBABA-US-NET-AP Alibaba (US) Technology Co., Ltd., CN
47.95.213.15|37963|47.94.0.0/15|CN|apnic|1989-01-06|CNNIC-ALIBABA-CN-NET-AP Hangzhou Alibaba Advertising Co.,Ltd., CN
5.188.33.194|199524|5.188.33.0/24|LU|ripencc|2012-08-09|GCORE, LU
5.39.70.222|16276|5.39.0.0/17|FR|ripencc|2012-05-15|OVH, FR
5.9.7.62|24940|5.9.0.0/16|DE|ripencc|2012-04-25|HETZNER-AS, DE
50.112.39.196|16509|50.112.0.0/17|US|arin|2011-05-23|AMAZON-02, US
51.154.131.18|15796|51.154.0.0/16|CH|ripencc|1993-09-01|SALT-, CH
54.178.155.230|16509|54.178.128.0/17|US|arin|2014-10-23|AMAZON-02, US
65.24.37.71|10796|65.24.0.0/17|US|arin|2000-08-22|TWC-10796-MIDWEST, US
65.36.83.142|7459|65.36.0.0/17|US|arin|2008-09-05|GRANDECOM-AS1, US
73.240.62.20|7922|73.0.0.0/8|US|arin|2005-04-19|COMCAST-7922, US
81.10.227.233|12605|81.10.128.0/17|AT|ripencc|2002-04-16|LIWEST-AT Linz, Austria, AT
82.160.215.7|20960|82.160.0.0/16|PL|ripencc|2003-07-01|TKTELEKOM-AS, PL
83.243.191.199|41164|83.243.160.0/19|NO|ripencc|2004-03-30|GET-NO GET Norway, NO
83.42.151.29|3352|83.42.0.0/16|ES|ripencc|2003-12-02|TELEFONICA_DE_ESPANA, ES
84.15.106.3|13194|84.15.0.0/16|LT|ripencc|2004-07-29|BITE Bite IP Network, LT
87.239.201.170|8758|87.239.200.0/21|CH|ripencc|2006-03-07|IWAY, CH
90.90.48.242|3215|90.90.0.0/16|FR|ripencc|2006-03-02|France Telecom - Orange, FR
94.158.246.183|39798|94.158.246.0/24|MD|ripencc|2018-08-28|MIVOCLOUD, MD
95.211.209.204|60781|95.211.0.0/16|NL|ripencc|2009-02-05|LEASEWEB-NL-AMS-01 Netherlands, NL
