# bitcoin dns seeds and whois results
IP Address|ASN|BGP Prefix|CC|Registry|Allocated|AS Name
103.239.19.142|131896|103.239.19.0/24|JP|apnic|2014-07-30|SSI-LAB SSI Lab Inc., JP
103.9.174.70|55905|103.9.174.0/24|JP|apnic|2012-05-18|COMZNET2 TOP CLOUD Inc., JP
104.143.2.195|26863|104.143.2.0/23|US|arin|2020-10-07|GAMESERVERKINGS, US
105.233.37.163|36874|105.233.0.0/17|ZA|afrinic|2012-08-01|Cybersmart, ZA
109.236.81.124|49981|109.236.80.0/20|NL|ripencc|2009-12-04|WORLDSTREAM, NL
109.69.68.60|49855|109.69.64.0/21|DE|ripencc|2009-09-29|PLUTEX Hermann-Ritter-Str. 108, DE
117.74.45.247|59108|117.74.32.0/19|JP|apnic|2007-07-06|KATCH-NET KATCH NETWORK INC., JP
122.116.90.171|3462|122.116.0.0/16|TW|apnic|2006-07-31|HINET Data Communication Business Group, TW
128.199.4.104|14061|128.199.0.0/20|GB|ripencc|1999-04-12|DIGITALOCEAN-ASN, US
129.192.83.191|29518|129.192.80.0/22|US|arin|1994-11-15|BREDBAND2, SE
13.244.63.164|16509|13.244.0.0/15|US|arin|2018-07-11|AMAZON-02, US
142.93.23.235|14061|142.93.16.0/20|US|arin|2018-07-12|DIGITALOCEAN-ASN, US
144.2.101.100|57370|144.2.96.0/20|CH|ripencc|1993-09-01|WINGO, CH
144.76.98.163|24940|144.76.0.0/16|DE|ripencc|1990-11-16|HETZNER-AS, DE
145.90.90.231|1103|145.90.0.0/16|NL|ripencc|1993-09-01|SURFNET-NL SURFnet, The Netherlands, NL
147.83.72.199|13041|147.83.0.0/16|ES|ripencc|1991-07-16|CESCA-AC, ES
152.115.191.196|31027|152.115.128.0/17|DK|ripencc|1991-08-12|GLOBALCONNECT-AS, DK
158.106.211.78|46450|158.106.192.0/19|US|arin|2015-08-03|PILOT, US
159.89.108.74|14061|159.89.96.0/20|US|arin|2017-07-07|DIGITALOCEAN-ASN, US
159.89.116.85|14061|159.89.112.0/20|US|arin|2017-07-07|DIGITALOCEAN-ASN, US
160.16.110.6|9370|160.16.0.0/17|JP|apnic|1992-06-10|SAKURA-B SAKURA Internet Inc., JP
165.22.94.141|14061|165.22.80.0/20|US|arin|2018-10-16|DIGITALOCEAN-ASN, US
167.172.42.30|14061|167.172.32.0/20|US|ripencc|1993-08-30|DIGITALOCEAN-ASN, US
173.31.161.228|30036|173.31.160.0/21|US|arin|2008-05-19|MEDIACOM-ENTERPRISE-BUSINESS, US
178.128.93.12|14061|178.128.80.0/20|US|ripencc|2010-03-03|DIGITALOCEAN-ASN, US
178.236.87.138|42560|178.236.80.0/20|BA|ripencc|2010-06-02|BA-TELEMACH-AS Telemach d.o.o. Sarajevo, BA
18.163.2.153|16509|18.163.0.0/16|US|arin|2019-10-07|AMAZON-02, US
18.163.200.139|16509|18.163.0.0/16|US|arin|2019-10-07|AMAZON-02, US
184.154.94.219|32475|184.154.0.0/16|US|arin|2010-06-21|SINGLEHOP-LLC, US
184.64.190.218|6327|184.64.188.0/22|CA|arin|2010-01-15|SHAW, CA
185.131.63.83|44489|185.131.60.0/22|CZ|ripencc|2015-12-15|STARNET, CZ
185.16.238.104|199419|185.16.238.0/24|TR|ripencc|2013-01-25|LIMONHOST, TR
185.180.221.7|49981|185.180.220.0/22|NL|ripencc|2016-12-07|WORLDSTREAM, NL
185.25.48.7|61272|185.25.48.0/22|LT|ripencc|2013-04-29|IST-AS, LT
185.30.247.169|197722|185.30.244.0/22|ES|ripencc|2013-07-18|TELECABLEANDALUCIA-AS, ES
188.127.183.29|15704|188.127.160.0/19|ES|ripencc|2009-07-30|AS15704, ES
188.138.123.159|8972|188.138.96.0/19|DE|ripencc|2009-05-08|GD-EMEA-DC-SXB1, DE
188.165.229.5|16276|188.165.0.0/16|FR|ripencc|2009-06-05|OVH, FR
188.166.122.56|14061|188.166.64.0/18|US|ripencc|2009-06-05|DIGITALOCEAN-ASN, US
188.94.42.24|49375|188.94.40.0/21|GB|ripencc|2009-05-28|AS-TRUNKNETWORKS Trunk Networks - www.trunknetworks.com, GB
189.231.89.164|8151|189.231.88.0/21|MX|lacnic|2007-09-05|Uninet S.A. de C.V., MX
190.104.249.44|11014|190.104.249.0/24|AR|lacnic|2012-03-23|CPS, AR
192.3.28.114|36352|192.3.28.0/22|US|arin|2013-06-07|AS-COLOCROSSING, US
193.107.73.31|50633|193.107.73.0/24|UA|ripencc|2010-02-18|NET-CITY-AS, UA
199.247.249.188|18988|199.247.240.0/20|CA|arin|2017-06-07|CITYWEST-CORP, CA
201.14.128.223|8167|201.14.128.0/18|BR|lacnic|2004-07-08|Brasil Telecom S/A - Filial Distrito Federal, BR
204.13.239.221|55106|204.13.232.0/21|US|arin|2011-04-19|DATACATE-AS1, US
208.73.1.142|31953|208.73.0.0/22|US|arin|2006-11-30|ACTIVESERVE-AS, US
211.233.16.218|3786|211.233.0.0/18|KR|apnic|2000-09-08|LGDACOM LG DACOM Corporation, KR
212.86.32.106|15366|212.86.32.0/19|DE|ripencc|1999-06-07|DNSNET German Internet Service Providers, DE
217.105.86.87|33915|217.105.64.0/19|NL|ripencc|2000-12-05|TNF-AS, NL
217.195.164.4|29321|217.195.160.0/20|CZ|ripencc|2001-04-24|CENTRONETAS Czech Republic, CZ
218.255.242.114|9381|218.255.224.0/19|HK|apnic|2003-09-22|HKBNES-AS-AP HKBN Enterprise Solutions HK Limited, HK
24.124.98.230|11232|24.124.98.0/24|US|arin|1996-07-31|MIDCO-NET, US
24.23.133.203|7922|24.16.0.0/13|US|arin|2003-12-08|COMCAST-7922, US
24.237.96.82|8047|24.237.0.0/16|US|arin|1997-10-14|GCI, US
3.10.5.123|16509|3.8.0.0/14|US|arin|2017-12-20|AMAZON-02, US
31.31.116.249|6876|31.31.96.0/19|UA|ripencc|2011-03-18|TENET-AS, UA
32.214.183.114|46690|32.208.0.0/12|US|arin|1990-05-30|SNET-FCC, US
34.101.103.184|139190|34.101.0.0/16|US|arin|2018-09-28|GOOGLE-AS-AP Google Asia Pacific Pte. Ltd., SG
34.106.170.167|15169|34.104.0.0/14|US|arin|2018-09-28|GOOGLE, US
34.106.53.91|15169|34.104.0.0/14|US|arin|2018-09-28|GOOGLE, US
34.96.182.63|15169|34.96.128.0/17|US|arin|2018-09-28|GOOGLE, US
35.198.49.11|15169|35.198.0.0/16|US|arin|2017-03-21|GOOGLE, US
35.236.139.60|15169|35.236.0.0/14|US|arin|2017-09-29|GOOGLE, US
37.187.134.176|16276|37.187.0.0/16|FR|ripencc|2012-03-20|OVH, FR
37.61.219.34|20773|37.61.208.0/20|DE|ripencc|2012-01-23|GODADDY, DE
45.135.4.143|25596|45.135.4.0/22|NL|ripencc|2019-07-29|CAMBRIUM-AS, NL
45.32.232.25|20473|45.32.232.0/21|US|arin|2015-02-17|AS-CHOOPA, US
45.89.16.45|35048|45.89.16.0/22|RU|ripencc|2019-06-20|BITERIKA-AS, RU
46.186.242.92|42961|46.186.224.0/19|KW|ripencc|2010-11-12|GPRS-AS ZAIN, KW
46.29.20.203|197226|46.29.16.0/21|PL|ripencc|2010-08-02|SPRINT-SDC, PL
5.135.177.202|16276|5.135.0.0/16|FR|ripencc|2012-07-06|OVH, FR
5.135.189.124|16276|5.135.0.0/16|FR|ripencc|2012-07-06|OVH, FR
5.9.83.143|24940|5.9.0.0/16|DE|ripencc|2012-04-25|HETZNER-AS, DE
5.9.87.210|24940|5.9.0.0/16|DE|ripencc|2012-04-25|HETZNER-AS, DE
51.15.180.168|12876|51.15.0.0/16|FR|ripencc|1993-09-01|Online SAS, FR
51.77.152.20|16276|51.77.0.0/16|FR|ripencc|1993-09-01|OVH, FR
52.214.144.26|16509|52.208.0.0/13|US|arin|2015-09-02|AMAZON-02, US
52.47.116.237|16509|52.47.0.0/16|US|arin|1991-12-19|AMAZON-02, US
54.180.137.207|16509|54.180.0.0/15|US|arin|2014-10-23|AMAZON-02, US
54.94.158.137|16509|54.94.128.0/18|US|arin|2014-06-20|AMAZON-02, US
54.94.24.55|16509|54.94.0.0/17|US|arin|2014-06-20|AMAZON-02, US
58.125.213.139|9318|58.120.0.0/13|KR|apnic|2005-04-28|SKB-AS SK Broadband Co Ltd, KR
61.250.91.26|9848|61.250.64.0/18|KR|apnic|2001-03-21|SEJONGTELECOM-AS-KR Sejong Telecom, KR
64.225.74.251|14061|64.225.64.0/20|US|arin|2019-08-14|DIGITALOCEAN-ASN, US
66.219.0.61|25769|66.219.0.0/20|US|arin|2007-11-13|GVTEL, US
67.208.195.20|21889|67.208.195.0/24|US|arin|2007-07-18|RAPIDSYSTEMS, US
68.132.64.146|701|68.132.0.0/16|US|arin|2002-05-13|UUNET, US
68.151.224.89|6327|68.151.224.0/22|CA|arin|2002-06-03|SHAW, CA
68.183.102.214|14061|68.183.96.0/20|US|arin|2018-09-18|DIGITALOCEAN-ASN, US
69.8.175.201|21766|69.8.175.0/24|US|arin|2010-12-03|BEN-LOMAND-TEL, US
70.169.55.13|22773|70.169.48.0/21|US|arin|2004-07-21|ASN-CXA-ALL-CCI-22773-RDC, US
71.198.208.72|7922|71.192.0.0/12|US|arin|2005-07-27|COMCAST-7922, US
74.67.240.204|11351|74.67.0.0/16|US|arin|2006-03-27|TWC-11351-NORTHEAST, US
78.23.204.168|6848|78.22.0.0/15|BE|ripencc|2007-05-14|TELENET-AS, BE
78.46.140.12|24940|78.46.0.0/15|DE|ripencc|2007-04-16|HETZNER-AS, DE
79.98.159.7|44065|79.98.152.0/21|CZ|ripencc|2007-11-06|NETAIR-AS, CZ
80.55.225.158|5617|80.48.0.0/13|PL|ripencc|2001-12-18|TPNET, PL
81.169.232.107|6724|81.169.128.0/17|DE|ripencc|2003-04-17|STRATO STRATO AG, DE
82.65.42.106|12322|82.64.0.0/14|FR|ripencc|2003-04-03|PROXAD, FR
83.162.2.12|3265|83.160.0.0/14|NL|ripencc|2004-03-03|XS4ALL-NL Amsterdam, NL
83.242.96.21|50955|83.242.96.0/24|RU|ripencc|2012-03-12|AHOST-AS, RU
84.38.3.249|196691|84.38.0.0/22|RU|ripencc|2012-05-31|GET-NET-AS, RU
85.208.71.25|42275|85.208.71.0/24|FR|ripencc|2019-02-21|THREEFOURTEEN, FR
85.25.194.12|8972|85.25.192.0/20|DE|ripencc|2005-12-05|GD-EMEA-DC-SXB1, DE
88.115.110.150|719|88.112.0.0/14|FI|ripencc|2006-07-20|ELISA-AS Helsinki, Finland, FI
88.202.183.8|13213|88.202.176.0/20|GB|ripencc|2005-11-22|UK2NET-AS, GB
88.8.88.88|3352|88.8.0.0/16|ES|ripencc|2005-07-13|TELEFONICA_DE_ESPANA, ES
89.216.21.96|31042|89.216.0.0/17|RS|ripencc|2006-06-21|SERBIA-BROADBAND-AS Serbia BroadBand-Srpske Kablovske mreze d.o.o., RS
89.230.96.42|21021|89.230.0.0/16|PL|ripencc|2006-04-21|MULTIMEDIA-AS Cable DTV Internet Voice Provider in Poland., PL
92.100.156.249|12389|92.100.0.0/16|RU|ripencc|2008-04-04|ROSTELECOM-AS, RU
92.145.161.244|3215|92.145.128.0/17|FR|ripencc|2007-07-12|France Telecom - Orange, FR
92.195.255.255|20676|92.192.0.0/13|DE|ripencc|2007-10-17|PLUSNET *****************, DE
94.130.220.87|24940|94.130.0.0/16|DE|ripencc|2008-06-23|HETZNER-AS, DE
94.203.76.244|15802|94.203.64.0/19|AE|ripencc|2008-07-17|DU-AS1, AE
96.234.164.254|701|96.234.128.0/17|US|arin|2006-12-29|UUNET, US
98.249.181.77|7922|98.192.0.0/10|US|arin|2007-04-20|COMCAST-7922, US
