# bitcoin dns seeds and whois results
IP Address|ASN|BGP Prefix|CC|Registry|Allocated|AS Name
102.65.190.112|328453|102.65.0.0/16||||Web-Africa-Networks-AS, ZA
107.11.115.68|10796|107.11.0.0/16|US|arin|2010-09-23|TWC-10796-MIDWEST, US
107.181.189.37|46562|107.181.189.0/24|US|arin|2014-02-14|PERFORMIVE, US
108.31.120.146|701|108.31.0.0/16|US|arin|2009-06-05|UUNET, US
109.248.206.13|203493|109.248.206.0/23|CZ|ripencc|2009-11-27|YACOLO-AS, RU
111.90.140.179|45839|111.90.140.0/24|MY|apnic|2009-06-17|SHINJIRU-MY-AS-AP Shinjiru Technology Sdn Bhd, MY
115.38.178.51|18126|115.38.0.0/16|JP|apnic|2008-07-08|CTCX Chubu Telecommunications Company, Inc., JP
120.136.123.202|9698|120.136.112.0/20|KR|apnic|2008-04-08|YOUNGDOONG-AS-KR LG HelloVision Corp., KR
123.57.150.34|37963|123.57.0.0/16|CN|apnic|2007-01-16|CNNIC-ALIBABA-CN-NET-AP Hangzhou Alibaba Advertising Co.,Ltd., CN
129.226.73.12|132203|129.226.72.0/23|SG|apnic|1988-03-07|TENCENT-NET-AP-CN Tencent Building, Kejizhongyi Avenue, CN
13.228.53.43|16509|13.228.0.0/15|US|arin|2016-08-09|AMAZON-02, US
134.122.40.31|14061|134.122.32.0/20|US|arin|2019-09-06|DIGITALOCEAN-ASN, US
134.17.26.161|25106|134.17.24.0/22|BY|ripencc|2011-11-03|MTSBY-AS, BY
136.24.119.249|19165|136.24.0.0/16|US|arin|2016-10-31|WEBPASS, US
136.24.8.157|19165|136.24.0.0/16|US|arin|2016-10-31|WEBPASS, US
136.55.40.183|16591|136.55.32.0/20|US|arin|2015-10-06|GOOGLE-FIBER, US
15.223.116.208|16509|15.222.0.0/15|US|arin|2018-09-27|AMAZON-02, US
158.51.121.163|62563|158.51.121.0/24|CA|arin|2020-01-10|AS-GLOBALTELEHOST, CA
159.2.165.130|855|159.2.160.0/20|CA|arin|2016-11-02|CANET-ASN-4, CA
161.53.240.18|2108|161.53.0.0/16|HR|ripencc|1993-09-01|CARNET-AS J.Marohnica 5, 10000 Zagreb, HR
162.214.64.156|46606|162.214.64.0/21|US|arin|2013-05-22|UNIFIEDLAYER-AS-1, US
167.179.153.249|4764|167.179.152.0/22|AU|apnic|1993-09-08|WIDEBAND-AS-AP Aussie Broadband, AU
173.249.41.199|51167|173.249.40.0/23|DE|ripencc|2010-05-26|CONTABO, DE
174.138.35.229|14061|174.138.32.0/20|US|arin|2016-04-12|DIGITALOCEAN-ASN, US
176.99.2.90|197695|176.99.2.0/24|RU|ripencc|2012-06-26|AS-REG, RU
178.236.87.138|42560|178.236.80.0/20|BA|ripencc|2010-06-02|BA-TELEMACH-AS Telemach d.o.o. Sarajevo, BA
18.162.156.95|16509|18.162.0.0/16|US|arin|2018-06-29|AMAZON-02, US
18.177.144.21|16509|18.176.0.0/15|US|arin|2018-06-29|AMAZON-02, US
18.188.40.131|16509|18.188.0.0/16|US|arin|2018-06-29|AMAZON-02, US
18.220.157.153|16509|18.220.0.0/14|US|arin|2018-06-29|AMAZON-02, US
18.222.229.143|16509|18.220.0.0/14|US|arin|2018-06-29|AMAZON-02, US
184.105.70.100|6939|184.104.0.0/15|US|arin|2010-05-10|HURRICANE, US
184.64.190.218|6327|184.64.188.0/22|CA|arin|2010-01-15|SHAW, CA
185.121.194.215|203865|185.121.192.0/22|DE|ripencc|2015-10-15|OVERTURN, DE
185.173.92.119|57494|185.173.92.0/22|RU|ripencc|2016-10-17|ADMAN-AS, RU
185.26.28.170|31415|185.26.28.0/24|RU|ripencc|2013-05-14|SVSCOMM-AS, RU
185.52.1.89|198203|185.52.0.0/22|US|ripencc|2014-03-27|ASN-ROUTELABEL, NL
185.85.3.140|20546|185.85.3.0/24|DE|ripencc|2015-01-21|SOPRADO-ANY, DE
185.95.219.53|39540|185.95.219.0/24|CH|ripencc|2015-04-13|COMMUNITYRACK-RMA, CH
190.194.139.28|10481|190.192.0.0/14|AR|lacnic|2010-05-11|Telecom Argentina S.A., AR
192.99.16.146|16276|192.99.0.0/16|CA|arin|2013-06-17|OVH, FR
193.196.39.26|34878|193.196.32.0/20|DE|ripencc|1993-09-01|KIT Karlsruhe Institute of Technology, DE
194.1.221.244|25133|194.1.220.0/23|UA|ripencc|2010-03-17|MCLAUT-AS, UA
195.204.173.39|2116|195.204.0.0/16|NO|ripencc|1996-07-10|ASN-CATCHCOM, NO
199.192.18.146|22612|199.192.18.0/24|US|arin|2018-03-12|NAMECHEAP-NET, US
2.200.83.134|3209|2.200.0.0/14|DE|ripencc|2010-11-18|VODANET International IP-Backbone of Vodafone, DE
204.107.27.43|54303|204.107.27.0/24|US|arin|2011-12-19|FILMO, US
206.189.137.124|14061|206.189.128.0/20|US|arin|1995-11-15|DIGITALOCEAN-ASN, US
209.51.188.190|22989|209.51.188.0/24|US|arin|1997-05-05|FREEASINFREEDOM, US
210.54.37.190|4771|210.54.32.0/21|NZ|apnic|2000-05-11|SPARKNZ Spark New Zealand Trading Ltd., NZ
211.251.235.65|4766|211.250.0.0/15|KR|apnic|2000-09-08|KIXS-AS-KR Korea Telecom, KR
212.83.35.11|47447|212.83.32.0/19|DE|ripencc|2008-06-24|TTM, DE
213.186.116.216|6849|213.186.112.0/20|UA|ripencc|2002-12-04|UKRTELNET, UA
216.38.129.164|6994|216.38.128.0/19|US|arin|1998-08-12|FASTMETRICS, US
219.137.249.177|4134|219.136.0.0/15|CN|apnic|2002-03-21|CHINANET-BACKBONE No.31,Jin-rong Street, CN
24.86.184.66|6327|24.86.184.0/22|CA|arin|2001-07-12|SHAW, CA
31.165.207.218|6730|31.164.0.0/15|CH|ripencc|2011-02-23|SUNRISE, CH
31.173.48.61|25159|31.173.32.0/19|RU|ripencc|2011-04-04|SONICDUO-AS, RU
31.21.8.32|50266|31.21.0.0/16|NL|ripencc|2011-03-25|TMOBILE-THUIS, NL
31.29.45.230|15943|31.29.32.0/19|DE|ripencc|2011-03-07|WTNET-AS wilhelm.tel GmbH, DE
34.222.37.152|16509|34.208.0.0/12|US|arin|2016-09-12|AMAZON-02, US
34.241.94.237|16509|34.240.0.0/13|US|arin|2016-09-12|AMAZON-02, US
34.87.112.13|15169|34.84.0.0/14|US|arin|2018-09-28|GOOGLE, US
35.203.15.57|15169|35.200.0.0/14|US|arin|2017-03-21|GOOGLE, US
35.234.78.228|15169|35.232.0.0/14|US|arin|2017-09-29|GOOGLE, US
35.242.148.200|15169|35.240.0.0/14|US|arin|2017-09-29|GOOGLE, US
35.246.144.163|15169|35.244.0.0/14|US|arin|2017-09-29|GOOGLE, US
38.242.12.100|64249|38.242.12.0/24|US|arin|1991-04-16|ENDOFFICE, US
45.32.201.171|20473|45.32.192.0/20|US|arin|2015-02-17|AS-CHOOPA, US
46.101.112.251|14061|46.101.96.0/19|US|ripencc|2010-06-24|DIGITALOCEAN-ASN, US
46.249.83.82|43561|46.249.64.0/19|BG|ripencc|2010-12-30|NET1-AS, BG
46.40.127.164|43205|46.40.64.0/18|BG|ripencc|2010-06-29|BULSATCOM-BG-AS Sofia, BG
46.8.179.104|137443|46.8.178.0/23|CZ|ripencc|2010-09-07|ANCHGLOBAL-AS-AP Anchnet Asia Limited, HK
47.148.18.2|5650|47.144.0.0/13|US|arin|2015-08-28|FRONTIER-FRTR, US
49.176.217.40|4804|49.176.216.0/21|AU|apnic|2010-12-02|MPX-AS Microplex PTY LTD, AU
49.232.82.76|45090|49.232.80.0/20|CN|apnic|2010-11-26|CNNIC-TENCENT-NET-AP Shenzhen Tencent Computer Systems Company Limited, CN
5.150.239.205|8473|5.150.192.0/18|SE|ripencc|2012-07-18|BAHNHOF http://www.bahnhof.net/, SE
5.188.62.24|34665|5.188.62.0/24|RU|ripencc|2012-08-09|PINDC-AS, RU
51.154.25.79|15796|51.154.0.0/16|CH|ripencc|1993-09-01|SALT-, CH
51.91.94.23|16276|51.91.0.0/16|FR|ripencc|1993-09-01|OVH, FR
52.19.190.151|16509|52.18.0.0/15|US|arin|1991-12-19|AMAZON-02, US
54.158.70.15|14618|54.156.0.0/14|US|arin|2014-10-23|AMAZON-AES, US
58.125.213.139|9318|58.120.0.0/13|KR|apnic|2005-04-28|SKB-AS SK Broadband Co Ltd, KR
58.158.0.86|17506|58.158.0.0/16|JP|apnic|2005-07-26|UCOM ARTERIA Networks Corporation, JP
62.210.6.33|12876|62.210.0.0/16|FR|ripencc|2000-10-26|Online SAS, FR
67.149.33.239|12083|67.149.32.0/21|US|arin|2004-02-19|WOW-INTERNET, US
68.54.100.49|7922|68.32.0.0/11|US|arin|2001-11-29|COMCAST-7922, US
70.185.56.136|22773|70.185.32.0/19|US|arin|2004-07-21|ASN-CXA-ALL-CCI-22773-RDC, US
70.81.37.76|5769|70.81.0.0/18|CA|arin|2004-07-14|VIDEOTRON, CA
73.97.164.59|7922|73.0.0.0/8|US|arin|2005-04-19|COMCAST-7922, US
77.242.84.34|41046|77.242.80.0/20|CZ|ripencc|2007-02-27|NEJTV-AS, CZ
77.52.178.235|21497|77.52.128.0/17|UA|ripencc|2007-01-17|UMC-AS, UA
77.95.167.127|39449|77.95.160.0/21|IE|ripencc|2007-06-12|FASTCOM-AS, IE
78.0.26.222|5391|78.0.0.0/16|HR|ripencc|2007-02-20|T-HT Croatian Telecom Inc., HR
78.108.111.113|8251|78.108.96.0/20|CZ|ripencc|2007-06-18|NFX_ZSPO, CZ
78.132.23.118|8412|78.132.0.0/17|AT|ripencc|2007-05-30|TMA Magenta Telekom, AT
78.143.145.1|35226|78.143.128.0/18|IE|ripencc|2007-08-17|RIPPLECOM-AS, IE
78.23.204.168|6848|78.20.0.0/14|BE|ripencc|2007-05-14|TELENET-AS, BE
79.19.237.79|3269|79.18.0.0/15|IT|ripencc|2007-02-21|ASN-IBSNAZ, IT
8.210.101.132|45102|8.210.0.0/17|SG|apnic|1992-12-01|CNNIC-ALIBABA-US-NET-AP Alibaba (US) Technology Co., Ltd., CN
8.38.89.152|13886|8.38.89.0/24|US|arin|1992-12-01|CLOUD-SOUTH, US
80.229.147.76|6871|80.229.0.0/16|GB|ripencc|2003-10-17|PLUSNET UK Internet Service Provider, GB
80.88.172.227|31263|80.88.160.0/20|IT|ripencc|2001-08-28|MYNET-AS, IT
82.24.215.11|5089|82.24.0.0/14|GB|ripencc|2003-02-28|NTL, GB
82.66.234.57|12322|82.64.0.0/14|FR|ripencc|2003-04-03|PROXAD, FR
83.148.241.222|39699|83.148.192.0/18|FI|ripencc|2004-03-09|SSPOY-AS, FI
84.17.54.71|60068|84.17.54.0/23|GB|ripencc|2004-07-23|CDN77 (^_^)/, GB
85.208.71.18|42275|85.208.71.0/24|FR|ripencc|2019-02-21|THREEFOURTEEN, FR
88.119.220.136|43811|88.119.220.0/24|LT|ripencc|2005-10-24|TELIA-LIETUVA, LT
89.239.99.102|31608|89.239.96.0/19|PL|ripencc|2007-05-25|GAWEX-AS Plac Wolnosci 11 Szczecinek, PL
90.187.75.113|3209|90.187.0.0/16|DE|ripencc|2006-11-09|VODANET International IP-Backbone of Vodafone, DE
90.212.255.173|5607|90.192.0.0/11|GB|ripencc|2007-06-14|BSKYB-BROADBAND-AS, GB
91.144.153.140|42116|91.144.152.0/21|RU|ripencc|2006-09-22|ERTH-NCHLN-AS, RU
91.97.39.52|9145|91.96.0.0/15|DE|ripencc|2006-08-30|EWETEL Cloppenburger Strasse 310, DE
92.249.143.44|20845|92.249.128.0/17|HU|ripencc|2007-11-15|DIGICABLE, HU
92.33.194.82|2119|92.32.0.0/14|SE|ripencc|2007-11-28|TELENOR-NEXTEL Telenor Norge AS, NO
95.213.171.142|49505|95.213.170.0/23|RU|ripencc|2009-08-12|SELECTEL, RU
95.79.35.133|42682|95.79.0.0/16|RU|ripencc|2008-12-10|ERTH-NNOV-AS, RU
99.98.217.243|7018|99.96.0.0/13|US|arin|2008-02-25|ATT-INTERNET4, US
