# bitcoin dns seeds and whois results
IP Address|ASN|BGP Prefix|CC|Registry|Allocated|AS Name
103.18.124.164|9336|103.18.124.0/22|AU|apnic|2013-03-15|WWWIRES-AU World Without Wires Pty Ltd, AU
103.9.174.70|55905|103.9.174.0/24|JP|apnic|2012-05-18|COMZNET2 TOP CLOUD Inc., JP
104.156.227.60|20473|104.156.224.0/22|US|arin|2014-07-22|AS-CHOOPA, US
107.2.147.49|7922|107.0.0.0/14|US|arin|2010-06-29|COMCAST-7922, US
109.238.46.186|15935|109.238.32.0/20|CZ|ripencc|2010-01-20|HA-VEL-LOCAL-AS Czech republic, CZ
129.126.172.115|17547|129.126.0.0/16|SG|apnic|1987-12-01|M1NET-SG-AP M1 NET LTD, SG
13.115.95.157|16509|13.112.0.0/14|US|arin|2016-08-09|AMAZON-02, US
13.209.5.125|16509|13.209.0.0/16|US|arin|2019-10-01|AMAZON-02, US
13.228.53.43|16509|13.228.0.0/15|US|arin|2019-10-01|AMAZON-02, US
13.230.73.66|16509|13.230.0.0/15|US|arin|2019-10-01|AMAZON-02, US
13.236.100.67|16509|13.236.0.0/14|US|arin|2019-10-01|AMAZON-02, US
13.250.122.226|16509|13.250.0.0/15|US|arin|2018-07-11|AMAZON-02, US
135.181.0.151|24940|135.181.0.0/16|DE|ripencc|1996-04-30|HETZNER-AS, DE
138.43.233.57|394147|138.43.233.0/24|US|arin|2019-04-15|MVLINK, US
139.0.66.243|23700|139.0.64.0/19|ID|apnic|2011-03-30|FASTNET-AS-ID Linknet-Fastnet ASN, ID
139.59.145.220|14061|139.59.128.0/19|SG|apnic|1990-06-27|DIGITALOCEAN-ASN, US
143.110.240.88|14061|143.110.240.0/20|US|arin|2020-01-17|DIGITALOCEAN-ASN, US
144.172.126.116|396881|144.172.126.0/24|US|arin|2014-05-07|DRSERVER1, US
144.91.116.146|51167|144.91.116.0/23|DE|ripencc|1990-11-20|CONTABO, DE
148.251.188.216|24940|148.251.0.0/16|DE|ripencc|1993-09-01|HETZNER-AS, DE
154.65.14.19|37628|154.65.12.0/22|ZA|afrinic|2013-09-26|KAB-Tech-AS, ZA
157.175.43.181|16509|157.175.0.0/16|US|arin|2017-12-28|AMAZON-02, US
161.53.201.185|2108|161.53.0.0/16|HR|ripencc|1993-09-01|CARNET-AS J.Marohnica 5, 10000 Zagreb, HR
161.97.184.178|51167|161.97.184.0/22|DE|ripencc|1992-06-23|CONTABO, DE
164.132.65.144|16276|164.132.0.0/16|FR|ripencc|1993-04-23|OVH, FR
165.22.227.235|14061|165.22.224.0/20|US|arin|2018-10-16|DIGITALOCEAN-ASN, US
174.142.191.135|32613|174.142.0.0/16|CA|arin|2008-12-19|IWEB-AS, CA
178.124.162.209|6697|178.124.162.0/24|BY|ripencc|2009-12-10|BELPAK-AS BELPAK, BY
178.20.100.35|45012|178.20.100.0/22|DE|ripencc|2010-02-22|CLOUDPIT, DE
178.63.242.43|24940|178.63.0.0/16|DE|ripencc|2010-03-02|HETZNER-AS, DE
178.79.83.93|3212|178.79.64.0/18|SI|ripencc|2010-05-07|TELEMACH Broadband Access & Carrier Services, SI
179.96.241.250|53059|179.96.240.0/20|BR|lacnic|2013-04-23|Center Prestadora Servicos S/C Ltda, BR
181.45.71.86|27747|181.45.64.0/20|AR|lacnic|2013-12-16|Telecentro S.A., AR
184.170.175.217|30600|184.170.160.0/20|US|arin|2011-05-23|AS-CMN, US
185.56.81.8|200699|185.56.81.0/24|SC|ripencc|2014-05-01|Datashield, Inc., SC
188.166.175.55|14061|188.166.168.0/21|US|ripencc|2009-06-05|DIGITALOCEAN-ASN, US
188.244.4.78|39709|188.244.0.0/20|RU|ripencc|2009-07-07|EXTREME-AS, RU
188.250.84.129|3243|188.250.0.0/15|PT|ripencc|2011-02-10|MEO-RESIDENCIAL, PT
188.27.173.192|8708|188.27.0.0/16|RO|ripencc|2009-02-11|RCS-RDS 73-75 Dr. Staicovici, RO
193.138.154.43|197393|193.138.152.0/22|CZ|ripencc|2010-11-12|ASRUDOLFNET, CZ
193.196.38.189|34878|193.196.32.0/20|DE|ripencc|1993-09-01|KIT Karlsruhe Institute of Technology, DE
195.204.173.39|2116|195.204.0.0/16|NO|ripencc|1996-07-10|ASN-CATCHCOM, NO
199.15.250.210|29713|199.15.248.0/21|US|arin|2010-07-07|ELIA-60, US
199.182.184.204|27223|199.182.184.0/22|US|arin|2012-04-23|LOATHING, US
199.47.254.80|16803|199.47.248.0/21|US|arin|2010-10-20|MYAKKATECH1, US
203.135.149.182|23881|203.135.149.0/24|HK|apnic|2000-07-05|UDOMAIN-AS-AP UDomain Web Hosting Company Ltd, HK
204.111.241.195|4922|204.111.128.0/17|US|arin|1995-05-03|SHENTEL, US
208.73.156.62|40447|208.73.156.0/22|US|arin|2017-02-08|SKYHAWK-GROUP, US
212.19.14.26|8749|212.19.0.0/19|RU|ripencc|1998-03-23|REDCOM-AS Redcom, Khabarovsk, Russia, RU
213.184.251.191|42772|213.184.251.0/24|BY|ripencc|2003-03-17|A1-BY-AS, BY
213.221.218.50|15600|213.221.192.0/18|CH|ripencc|2003-03-07|FINECOM Quickline AG, CH
217.64.133.220|60098|217.64.128.0/21|RU|ripencc|2008-10-29|INSITINVEST-AS, RU
27.109.153.99|4609|27.109.128.0/19|MO|apnic|2010-06-10|CTM-MO Companhia de Telecomunicacoes de Macau SARL, MO
3.34.133.144|16509|3.34.0.0/15|US|arin|2017-12-20|AMAZON-02, US
31.128.159.50|51032|31.128.128.0/19|RU|ripencc|2011-03-03|NEVOD-AS, RU
34.64.243.112|139070|34.64.0.0/16|US|arin|2018-09-28|GOOGLE-AS-AP Google Asia Pacific Pte. Ltd., SG
34.82.170.246|15169|34.80.0.0/14|US|arin|2018-09-28|GOOGLE, US
35.189.76.12|15169|35.189.64.0/19|US|arin|2016-10-11|GOOGLE, US
35.190.200.254|15169|35.190.192.0/19|US|arin|2016-10-11|GOOGLE, US
35.204.137.151|15169|35.204.0.0/15|US|arin|2017-03-21|GOOGLE, US
35.241.224.92|15169|35.240.0.0/14|US|arin|2017-09-29|GOOGLE, US
35.246.231.230|15169|35.244.0.0/14|US|arin|2017-09-29|GOOGLE, US
37.34.249.83|42961|37.34.240.0/20|KW|ripencc|2012-01-03|GPRS-AS ZAIN, KW
46.101.242.237|14061|46.101.128.0/17|US|ripencc|2010-06-24|DIGITALOCEAN-ASN, US
46.166.151.160|43350|46.166.144.0/21|NL|ripencc|2010-12-16|NFORCE, NL
46.233.31.4|42431|46.233.0.0/19|BG|ripencc|2011-02-21|B-NET, BG
47.242.63.115|45102|47.242.0.0/16|US|arin|2016-04-15|CNNIC-ALIBABA-US-NET-AP Alibaba (US) Technology Co., Ltd., CN
5.133.65.82|15440|5.133.65.0/24|LT|ripencc|2018-11-09|BALTNETA Customers AS, LT
5.61.50.213|58061|5.61.48.0/22|GB|ripencc|2012-06-07|SCALAXY-AS, NL
50.53.250.162|27017|50.53.0.0/16|US|arin|2010-09-24|ZIPLY-FIBER-LEGACY-ASN, US
51.15.171.227|12876|51.15.0.0/16|FR|ripencc|1993-09-01|Online SAS, FR
51.159.38.93|12876|51.158.0.0/15|FR|ripencc|1993-09-01|Online SAS, FR
51.75.242.135|16276|51.75.0.0/16|FR|ripencc|1993-09-01|OVH, FR
52.142.150.101|8075|52.136.0.0/13|US|arin|2015-11-24|MICROSOFT-CORP-MSN-AS-BLOCK, US
52.53.175.201|16509|52.52.0.0/15|US|arin|1991-12-19|AMAZON-02, US
54.217.186.6|16509|54.216.0.0/15|US|arin|2014-10-23|AMAZON-02, US
54.37.81.191|16276|54.37.0.0/16|FR|ripencc|1992-03-17|OVH, FR
62.210.131.148|12876|62.210.0.0/16|FR|ripencc|2000-10-26|Online SAS, FR
64.227.113.117|14061|64.227.112.0/20|US|arin|2019-08-14|DIGITALOCEAN-ASN, US
64.227.13.20|14061|64.227.0.0/20|US|arin|2019-08-14|DIGITALOCEAN-ASN, US
66.115.219.87|13576|66.115.192.0/18|US|arin|2002-12-20|SDNW-13576, US
66.208.64.128|10352|66.208.64.0/20|US|arin|2006-04-17|WCTC, US
66.96.199.249|56300|66.96.199.0/24|SG|apnic|2001-11-01|MYREPUBLIC-SG MyRepublic Ltd., SG
67.159.134.74|14051|67.159.128.0/19|US|arin|2006-12-27|SUREWEST, US
67.55.3.200|33139|67.55.2.0/23|CA|arin|2005-06-17|CANACA-210, CA
68.1.44.55|22773|68.1.32.0/19|US|arin|2001-11-12|ASN-CXA-ALL-CCI-22773-RDC, US
68.183.54.191|14061|68.183.48.0/20|US|arin|2018-09-18|DIGITALOCEAN-ASN, US
68.183.67.64|14061|68.183.64.0/20|US|arin|2018-09-18|DIGITALOCEAN-ASN, US
75.119.135.36|51167|75.119.128.0/19|DE|ripencc|2006-05-12|CONTABO, DE
75.152.21.54|852|75.152.0.0/18|CA|arin|2006-08-01|TELUS Communications, CA
75.157.151.52|852|75.157.0.0/16|CA|arin|2006-08-01|TELUS Communications, CA
78.46.174.178|24940|78.46.0.0/15|DE|ripencc|2007-04-16|HETZNER-AS, DE
78.46.75.10|24940|78.46.0.0/15|DE|ripencc|2007-04-16|HETZNER-AS, DE
78.90.91.220|35141|78.90.91.0/24|BG|ripencc|2007-06-27|MEGALAN, BG
80.147.82.165|3320|80.144.0.0/13|DE|ripencc|2001-08-06|DTAG Internet service provider operations, DE
81.117.225.245|20959|81.117.0.0/16|IT|ripencc|2002-07-08|TELECOM-ITALIA-DATA-COM, IT
81.173.131.162|8422|81.173.128.0/17|DE|ripencc|2003-02-19|NETCOLOGNE, DE
82.194.153.233|8445|82.194.128.0/19|AT|ripencc|2003-10-20|SALZBURG-AG-AS, AT
84.212.145.24|41164|84.212.128.0/17|NO|ripencc|2005-07-07|GET-NO GET Norway, NO
84.38.133.109|203557|84.38.133.0/24|BZ|ripencc|2006-05-26|DATACLUB-NL, BZ
84.46.86.171|15943|84.46.0.0/17|DE|ripencc|2004-09-29|WTNET-AS wilhelm.tel GmbH, DE
85.10.199.220|24940|85.10.192.0/18|DE|ripencc|2005-02-23|HETZNER-AS, DE
85.17.131.145|60781|85.17.0.0/16|NL|ripencc|2005-03-11|LEASEWEB-NL-AMS-01 Netherlands, NL
85.170.178.143|15557|85.168.0.0/14|FR|ripencc|2004-12-21|LDCOMNET, FR
87.121.37.156|43561|87.121.37.0/24|BG|ripencc|2005-07-12|NET1-AS, BG
87.145.56.69|3320|87.128.0.0/10|DE|ripencc|2005-05-03|DTAG Internet service provider operations, DE
88.80.148.68|44901|88.80.148.0/24|CY|ripencc|2005-11-29|BELCLOUD, BG
91.144.153.140|42116|91.144.152.0/21|RU|ripencc|2006-09-22|ERTH-NCHLN-AS, RU
91.195.192.38|62136|91.195.192.0/24|GB|ripencc|2007-10-04|U46, GB
91.219.25.232|50448|91.219.24.0/22|RU|ripencc|2010-09-02|SYSTEM-SERVICE-AS, RU
91.59.150.101|3320|91.0.0.0/10|DE|ripencc|2006-07-03|DTAG Internet service provider operations, DE
92.75.172.216|3209|92.72.0.0/13|DE|ripencc|2007-07-27|VODANET International IP-Backbone of Vodafone, DE
93.49.6.140|12874|93.48.0.0/13|IT|ripencc|2008-02-25|FASTWEB, IT
93.57.81.162|12874|93.56.0.0/14|IT|ripencc|2008-02-25|FASTWEB, IT
94.228.91.157|48133|94.228.88.0/22|SK|ripencc|2008-10-15|E-NET-SK-AS, SK
95.110.234.93|31034|95.110.192.0/18|IT|ripencc|2008-12-18|ARUBA-ASN, IT
95.216.10.83|24940|95.216.0.0/16|DE|ripencc|2009-02-24|HETZNER-AS, DE
95.83.73.31|35728|95.83.64.0/18|RU|ripencc|2008-12-15|MTS-PENZA-AS, RU
98.156.108.211|11427|98.156.0.0/16|US|arin|2007-12-18|TWC-11427-TEXAS, US
