# bitcoin dns seeds and whois results
IP Address|ASN|BGP Prefix|CC|Registry|Allocated|AS Name
107.174.245.119|36352|107.174.244.0/22|US|arin|2013-12-27|AS-COLOCROSSING, US
109.238.11.95|21409|109.238.0.0/20|FR|ripencc|2010-01-20|IKOULA, FR
113.11.252.97|38532|113.11.248.0/21|SG|apnic|2011-03-11|USONYX-AS-AP USONYX PTE LTD, SG
121.78.223.195|9286|121.78.192.0/18|KR|apnic|2006-06-20|KINXIDC-AS-KR KINX, KR
125.238.196.194|4771|125.238.192.0/21|NZ|apnic|2006-11-01|SPARKNZ Spark New Zealand Trading Ltd., NZ
13.250.83.68|16509|13.250.0.0/15|US|arin|2018-07-11|AMAZON-02, US
130.185.77.105|60631|130.185.77.0/24|IR|ripencc|2011-10-24|PARVASYSTEM, IR
131.147.11.231|2527|131.147.0.0/16|JP|apnic|1988-11-23|SO-NET Sony Network Communications Inc., JP
143.178.57.3|50266|143.178.0.0/17|NL|ripencc|1990-10-01|TMOBILE-THUIS, NL
146.226.76.227|20243|146.226.0.0/17|VI|arin|1991-02-28|U, VI
147.135.156.72|16276|147.135.128.0/17|FR|ripencc|2017-03-22|OVH, FR
148.251.144.220|24940|148.251.0.0/16|DE|ripencc|1993-09-01|HETZNER-AS, DE
149.224.48.144|15943|149.224.0.0/17|DE|ripencc|1993-09-01|WTNET-AS wilhelm.tel GmbH, DE
149.28.38.131|20473|149.28.32.0/19|US|arin|2018-05-04|AS-CHOOPA, US
15.207.116.17|16509|15.206.0.0/15|US|arin|2019-03-26|AMAZON-02, US
15.237.106.19|16509|15.236.0.0/15|US|arin|2018-09-27|AMAZON-02, US
158.109.79.194|13041|158.109.0.0/16|ES|ripencc|1992-02-25|CESCA-AC, ES
158.181.226.33|41750|158.181.224.0/20|KG|ripencc|2011-11-10|AS-MEGALINE-, KG
159.89.183.74|14061|159.89.176.0/20|US|arin|2017-07-07|DIGITALOCEAN-ASN, US
161.35.233.130|14061|161.35.224.0/20|US|arin|2019-07-30|DIGITALOCEAN-ASN, US
161.97.176.229|51167|161.97.176.0/21|DE|ripencc|1992-06-23|CONTABO, DE
162.154.207.147|10796|162.152.0.0/14|US|arin|2012-10-10|TWC-10796-MIDWEST, US
162.227.78.128|7018|162.224.0.0/12|US|arin|2013-05-21|ATT-INTERNET4, US
163.172.61.154|12876|163.172.0.0/16|GB|ripencc|1992-02-14|Online SAS, FR
167.71.162.228|14061|167.71.160.0/20|US|arin|2019-04-24|DIGITALOCEAN-ASN, US
172.104.139.202|63949|172.104.128.0/19|US|arin|2015-06-19|LINODE-AP Linode, LLC, US
173.212.223.94|51167|173.212.192.0/19|DE|ripencc|2009-10-26|CONTABO, DE
173.79.107.81|701|173.79.0.0/16|US|arin|2008-08-11|UUNET, US
178.128.97.218|14061|178.128.96.0/20|US|ripencc|2010-03-03|DIGITALOCEAN-ASN, US
178.236.87.138|42560|178.236.80.0/20|BA|ripencc|2010-06-02|BA-TELEMACH-AS Telemach d.o.o. Sarajevo, BA
178.252.122.139|42893|178.252.64.0/18|RU|ripencc|2010-05-26|NWLINK-AS, RU
178.255.42.126|197155|178.255.42.0/24|PL|ripencc|2010-07-01|ARTNET, PL
185.152.138.74|6697|185.152.136.0/22|BY|ripencc|2016-05-18|BELPAK-AS BELPAK, BY
185.157.162.111|197595|185.157.162.0/24|SE|ripencc|2016-06-28|OBENETWORK Obenetwork AB, SE
185.173.92.119|57494|185.173.92.0/22|RU|ripencc|2016-10-17|ADMAN-AS, RU
185.186.143.123|204490|185.186.140.0/22|RU|ripencc|2017-01-19|ASKONTEL, RU
185.219.111.149|205311|185.219.110.0/23|GB|ripencc|2017-08-31|CAMBRIDGE_FIBRE_NETWORKS, GB
185.233.148.146|60118|185.233.148.0/22|RO|ripencc|2017-11-24|CYBERSMARTSOLUTIONS-AS, RO
185.247.224.191|200651|185.247.224.0/24|SC|ripencc|2018-03-05|FLOKINET, SC
188.214.128.192|16125|188.214.128.0/21|LT|ripencc|2009-05-08|CHERRYSERVERS1-AS, LT
189.5.165.56|28573|189.5.128.0/18|BR|lacnic|2006-09-06|CLARO S.A., BR
190.177.29.59|22927|190.176.0.0/15|AR|lacnic|2008-03-11|Telefonica de Argentina, AR
192.188.2.58|394085|192.188.2.0/24|CA|arin|2015-07-23|THINKON-GUBOV, CA
193.198.68.178|2108|193.198.0.0/16|HR|ripencc|1993-09-01|CARNET-AS J.Marohnica 5, 10000 Zagreb, HR
194.1.221.244|25133|194.1.220.0/23|UA|ripencc|2010-03-17|MCLAUT-AS, UA
194.14.246.9|50066|194.14.246.0/24|SE|ripencc|1993-12-09|SRSTUBES-AS, SE
195.202.169.149|8339|195.202.160.0/19|AT|ripencc|1998-02-20|KABSI-AS, AT
195.206.105.42|9009|195.206.105.0/24|RO|ripencc|2018-08-07|M247, GB
202.177.24.140|7479|202.177.24.0/24|HK|apnic|1997-03-10|KDDHK-AS-AP KDD HONG KONG LIMITED, HK
204.195.18.183|11404|204.195.0.0/17|US|arin|2009-07-22|AS-WAVE-1, US
209.97.178.179|14061|209.97.176.0/20|US|arin|1997-07-03|DIGITALOCEAN-ASN, US
210.246.63.55|9500|210.246.0.0/18|NZ|apnic|2002-10-24|VODAFONE-TRANSIT-AS Vodafone NZ Ltd., NZ
210.8.99.2|2764|210.8.0.0/15|AU|apnic|1996-10-09|AAPT AAPT Limited, AU
212.133.211.75|8386|212.133.208.0/20|TR|ripencc|1999-06-21|KOCNET, TR
213.178.28.118|29413|213.178.16.0/20|DE|ripencc|1999-12-15|KOMRO-AS Komro Telekommunikations GmbH, DE
216.18.178.238|29789|216.18.160.0/19|US|arin|2009-08-31|REFLECTED, US
216.8.128.72|7057|216.8.128.0/19|CA|arin|2001-01-04|MANAGEDNETWORK, CA
217.145.94.94|20665|217.145.80.0/20|BG|ripencc|2004-04-06|VARNANET-AS, BG
217.15.178.7|25534|217.15.176.0/22|KZ|ripencc|2002-12-24|INTELSOFT-AS, KZ
24.226.68.134|7992|24.226.0.0/17|CA|arin|1997-03-31|COGECOWAVE, CA
31.201.236.49|50266|31.201.0.0/16|NL|ripencc|2011-04-28|TMOBILE-THUIS, NL
31.21.8.32|50266|31.21.0.0/16|NL|ripencc|2011-03-25|TMOBILE-THUIS, NL
34.101.110.211|139190|34.101.0.0/16|US|arin|2018-09-28|GOOGLE-AS-AP Google Asia Pacific Pte. Ltd., SG
34.65.210.142|15169|34.64.0.0/14|US|arin|2018-09-28|GOOGLE, US
34.86.228.49|15169|34.84.0.0/14|US|arin|2018-09-28|GOOGLE, US
35.231.114.197|15169|35.228.0.0/14|US|arin|2017-09-29|GOOGLE, US
46.126.205.128|6830|46.126.0.0/16|CH|ripencc|2010-06-01|LIBERTYGLOBAL Liberty Global (formerly UPC Broadband Holding, aka AORTA), NL
47.244.191.212|45102|47.244.128.0/17|US|arin|2016-04-15|CNNIC-ALIBABA-US-NET-AP Alibaba (US) Technology Co., Ltd., CN
47.252.80.192|45102|47.252.64.0/18|US|arin|2016-04-15|CNNIC-ALIBABA-US-NET-AP Alibaba (US) Technology Co., Ltd., CN
47.75.116.211|45102|47.75.0.0/17|US|arin|2016-03-17|CNNIC-ALIBABA-US-NET-AP Alibaba (US) Technology Co., Ltd., CN
5.133.65.82|15440|5.133.65.0/24|LT|ripencc|2018-11-09|BALTNETA Customers AS, LT
5.9.99.120|24940|5.9.0.0/16|DE|ripencc|2012-04-25|HETZNER-AS, DE
51.15.95.161|12876|51.15.0.0/17|FR|ripencc|1993-09-01|Online SAS, FR
52.15.65.61|16509|52.15.64.0/18|US|arin|1991-12-19|AMAZON-02, US
52.53.175.201|16509|52.52.0.0/15|US|arin|1991-12-19|AMAZON-02, US
54.185.108.174|16509|54.184.0.0/15|US|arin|2014-10-23|AMAZON-02, US
60.244.109.18|24154|60.244.96.0/19|TW|apnic|2005-01-21|APBT-AS-TW Asia Pacific Broadband Fixed Lines Co., Ltd., TW
62.210.189.152|12876|62.210.0.0/16|FR|ripencc|2000-10-26|Online SAS, FR
62.210.6.33|12876|62.210.0.0/16|FR|ripencc|2000-10-26|Online SAS, FR
62.210.99.100|12876|62.210.0.0/16|FR|ripencc|2000-10-26|Online SAS, FR
62.251.109.38|3265|62.251.0.0/17|NL|ripencc|2001-01-03|XS4ALL-NL Amsterdam, NL
62.38.75.208|3329|62.38.0.0/16|GR|ripencc|2001-05-30|HOL-GR Athens, Greece, GR
64.235.90.126|25769|64.235.64.0/19|US|arin|2002-09-11|GVTEL, US
65.19.155.82|6939|65.19.128.0/18|US|arin|2002-04-17|HURRICANE, US
68.168.176.51|10242|68.168.160.0/19|US|arin|2009-05-05|USINTERNET, US
68.183.186.231|14061|68.183.176.0/20|US|arin|2018-09-18|DIGITALOCEAN-ASN, US
68.203.9.66|11427|68.203.0.0/16|US|arin|2003-01-31|TWC-11427-TEXAS, US
73.0.216.24|7922|73.0.0.0/8|US|arin|2005-04-19|COMCAST-7922, US
76.11.17.187|11260|76.11.0.0/19|CA|arin|2007-02-23|EASTLINK-HSI, CA
79.120.70.47|12714|79.120.0.0/17|RU|ripencc|2007-07-05|TI-AS Moscow, Russia, RU
79.98.105.138|197216|79.98.105.0/24|BG|ripencc|2012-08-29|DELTA-BG-AS, BG
8.210.170.138|45102|8.210.128.0/17|SG|apnic|1992-12-01|CNNIC-ALIBABA-US-NET-AP Alibaba (US) Technology Co., Ltd., CN
80.79.114.34|34702|80.79.112.0/20|EE|ripencc|2005-03-18|WAVECOM-AS, EE
81.2.105.67|20712|81.2.64.0/18|GB|ripencc|2002-04-03|AS20712 Andrews & Arnold Ltd, GB
82.10.188.54|5089|82.8.0.0/14|GB|ripencc|2003-02-28|NTL, GB
82.177.176.24|20804|82.177.0.0/16|PL|ripencc|2003-08-26|ASN-TELENERGO ul. PERKUNA 47, WARSZAWA, PL
82.38.182.164|5089|82.38.0.0/16|GB|ripencc|2003-01-31|NTL, GB
86.139.27.108|2856|86.128.0.0/12|GB|ripencc|2005-02-07|BT-UK-AS BTnet UK Regional network, GB
86.59.171.179|5483|86.59.128.0/17|HU|ripencc|2012-09-10|MAGYAR-TELEKOM-MAIN-AS Magyar Telekom Nyrt., HU
88.114.100.214|719|88.112.0.0/14|FI|ripencc|2006-07-20|ELISA-AS Helsinki, Finland, FI
88.142.221.215|8228|88.142.0.0/16|FR|ripencc|2005-09-16|CEGETEL-AS, FR
88.207.111.111|31012|88.207.0.0/17|HR|ripencc|2005-12-14|DCM-AS Vipnet d.o.o., HR
88.212.44.33|42841|88.212.32.0/20|SK|ripencc|2005-12-08|ANTIK, SK
88.88.123.50|2119|88.88.0.0/13|NO|ripencc|2005-11-25|TELENOR-NEXTEL Telenor Norge AS, NO
89.106.109.134|13306|89.106.108.0/23|BG|ripencc|2006-03-23|UNICS-AS, BG
89.177.34.147|6830|89.177.0.0/16|CZ|ripencc|2006-03-16|LIBERTYGLOBAL Liberty Global (formerly UPC Broadband Holding, aka AORTA), NL
90.66.173.253|3215|90.66.0.0/16|FR|ripencc|2006-03-02|France Telecom - Orange, FR
91.144.153.140|42116|91.144.152.0/21|RU|ripencc|2006-09-22|ERTH-NCHLN-AS, RU
92.39.203.142|13122|92.39.200.0/21|GB|ripencc|2008-03-04|MANX-AS MANX-TELECOM Autonomous System, GB
93.107.153.162|15502|93.107.0.0/16|IE|ripencc|2008-04-09|VODAFONE-IRELAND-ASN, IE
93.243.24.237|3320|93.192.0.0/10|DE|ripencc|2008-02-12|DTAG Internet service provider operations, DE
93.71.202.230|30722|93.71.192.0/18|IT|ripencc|2008-03-17|VODAFONE-IT-ASN, IT
93.95.88.3|35434|93.95.88.0/21|PL|ripencc|2009-02-13|PIRXNET-AS, PL
94.199.173.120|48362|94.199.168.0/21|AT|ripencc|2008-11-17|TKSWF-AS, AT
94.26.49.71|48452|94.26.49.0/24|BG|ripencc|2008-06-11|TRAFFIC-NET, BG
95.154.90.99|44724|95.154.90.0/24|RU|ripencc|2009-02-24|OCTOPUSNET-AS, RU
95.216.8.166|24940|95.216.0.0/16|DE|ripencc|2009-02-24|HETZNER-AS, DE
96.237.114.206|701|96.237.0.0/16|US|arin|2006-12-29|UUNET, US
