# bitcoin dns seeds and whois results
IP Address|ASN|BGP Prefix|CC|Registry|Allocated|AS Name
101.132.39.85|37963|101.132.0.0/16|CN|apnic|2010-12-16|CNNIC-ALIBABA-CN-NET-AP Hangzhou Alibaba Advertising Co.,Ltd., CN
101.173.40.161|1221|101.160.0.0/11|AU|apnic|2010-12-23|ASN-TELSTRA Telstra Corporation Ltd, AU
101.98.167.205|9790|101.98.0.0/16|NZ|apnic|2010-12-22|VOCUSGROUPNZ VocusGroup, NZ
102.132.245.16|37680|102.132.240.0/20|ZA|afrinic|2018-07-04|COOL-IDEAS, ZA
103.249.148.27|9268|103.249.148.0/22|AU|apnic|2013-06-06|OVERTHEWIRE-AS-AP Over The Wire Pty Ltd, AU
103.99.168.130|54415|103.99.168.0/24|JP|apnic|2017-08-28|WIZ-JP-AS-AP WIZ K.K., JP
104.219.251.30|22612|104.219.251.0/24|US|arin|2014-11-03|NAMECHEAP-NET, US
104.36.182.197|33438|104.36.180.0/22|US|arin|2014-06-05|HIGHWINDS2, US
108.61.162.115|20473|108.61.160.0/22|US|arin|2010-12-08|AS-CHOOPA, US
113.53.157.118|23969|113.53.144.0/20|TH|apnic|2008-10-22|TOT-NET TOT Public Company Limited, TH
118.93.57.249|9500|118.93.0.0/16|NZ|apnic|2007-08-24|VODAFONE-TRANSIT-AS Vodafone NZ Ltd., NZ
119.17.148.97|4764|119.17.144.0/21|AU|apnic|2007-12-03|WIDEBAND-AS-AP Aussie Broadband, AU
121.40.203.142|37963|121.40.0.0/15|CN|apnic|2006-05-24|CNNIC-ALIBABA-CN-NET-AP Hangzhou Alibaba Advertising Co.,Ltd., CN
121.6.251.11|9506|121.6.128.0/17|SG|apnic|2006-05-23|SINGTEL-FIBRE Singtel Fibre Broadband, SG
13.212.96.45|16509|13.212.0.0/15|US|arin|2019-10-01|AMAZON-02, US
136.24.8.157|19165|136.24.0.0/16|US|arin|2016-10-31|WEBPASS, US
15.228.89.32|16509|15.228.0.0/15|US|arin|2019-03-26|AMAZON-02, US
151.42.109.51|1267|151.42.0.0/16|IT|ripencc|1991-05-13|ASN-WINDTRE IUNET, IT
159.89.182.64|14061|159.89.176.0/20|US|arin|2017-07-07|DIGITALOCEAN-ASN, US
162.218.218.163|29844|162.218.218.0/24|US|arin|2013-08-07|SENAWAVE, US
172.104.181.119|63949|172.104.160.0/19|US|arin|2015-06-19|LINODE-AP Linode, LLC, US
173.231.200.117|22611|173.231.192.0/20|US|arin|2018-10-23|INMOTION, US
176.97.247.9|60529|176.97.240.0/21|CZ|ripencc|2011-10-07|PRASLAVICENET, CZ
178.128.120.178|14061|178.128.112.0/20|US|ripencc|2010-03-03|DIGITALOCEAN-ASN, US
178.162.210.17|28753|178.162.192.0/18|DE|ripencc|2010-02-05|LEASEWEB-DE-FRA-10, DE
178.236.87.138|42560|178.236.80.0/20|BA|ripencc|2010-06-02|BA-TELEMACH-AS Telemach d.o.o. Sarajevo, BA
178.63.9.115|24940|178.63.0.0/16|DE|ripencc|2010-03-02|HETZNER-AS, DE
18.134.246.255|16509|18.132.0.0/14|US|arin|2019-10-07|AMAZON-02, US
18.166.212.138|16509|18.166.0.0/15|US|arin|2019-10-07|AMAZON-02, US
185.181.176.246|206591|185.181.176.0/24|CZ|ripencc|2016-12-12|ALZACZ-AS, CZ
185.209.70.17|204568|185.209.70.0/23|PL|ripencc|2017-06-20|PIKOL-AS, PL
185.25.48.114|61272|185.25.48.0/22|LT|ripencc|2013-04-29|IST-AS, LT
188.214.133.181|16125|188.214.128.0/21|LT|ripencc|2009-05-08|CHERRYSERVERS1-AS, LT
188.34.186.9|24940|188.34.128.0/17|DE|ripencc|2009-03-19|HETZNER-AS, DE
193.106.29.2|50297|193.106.28.0/22|UA|ripencc|2009-11-30|INFIUM, UA
193.169.240.119|39681|193.169.240.0/23|UA|ripencc|2009-08-11|MYHOSTUA-AS, UA
193.40.103.45|3221|193.40.0.0/16|EE|ripencc|1995-03-15|EENET-AS, EE
195.123.245.175|204957|195.123.244.0/22|BG|ripencc|1997-04-04|GREENFLOID-AS, BG
195.139.122.169|2116|195.139.0.0/16|NO|ripencc|1997-05-09|ASN-CATCHCOM, NO
198.144.141.16|55900|198.144.128.0/20|JP|apnic|1999-12-03|GLBB-JP GLBB Japan KK, JP
2.56.99.239|197540|2.56.96.0/22|DE|ripencc|2019-03-13|NETCUP-AS netcup GmbH, DE
203.219.178.237|7545|203.219.178.0/24|AU|apnic|2003-03-11|TPG-INTERNET-AP TPG Telecom Limited, AU
206.210.97.114|33130|206.210.96.0/19|CA|arin|2004-04-29|IASL, CA
206.55.210.10|33618|206.55.210.0/24|US|arin|2008-03-27|SERVLET-LLC-AS, US
209.58.168.52|59253|209.58.160.0/20|SG|apnic|1999-04-29|LEASEWEB-APAC-SIN-11 Leaseweb Asia Pacific pte. ltd., SG
212.233.244.196|29582|212.233.244.0/24|BG|ripencc|2008-02-14|SATCOM-AS, BG
212.34.225.118|44395|212.34.224.0/19|AM|ripencc|2009-04-23|ORG-UL31-RIPE, AM
213.251.238.34|29420|213.251.224.0/20|RU|ripencc|2003-05-09|NLINE-AS, RU
217.113.121.169|8416|217.113.112.0/20|RU|ripencc|2003-10-13|INFOLINE-AS, RU
3.1.201.76|16509|3.0.0.0/15|US|arin|2017-12-20|AMAZON-02, US
3.123.19.130|16509|3.120.0.0/14|US|arin|2017-12-20|AMAZON-02, US
3.126.209.33|16509|3.124.0.0/14|US|arin|2017-12-20|AMAZON-02, US
3.17.174.43|16509|3.16.0.0/14|US|arin|2017-12-20|AMAZON-02, US
3.224.147.129|14618|3.224.0.0/12|US|arin|2018-06-25|AMAZON-AES, US
3.64.210.146|16509|3.64.0.0/12|US|arin|2017-12-20|AMAZON-02, US
34.193.35.86|14618|34.192.0.0/12|US|arin|2016-09-12|AMAZON-AES, US
34.210.198.230|16509|34.208.0.0/12|US|arin|2016-09-12|AMAZON-02, US
34.70.247.64|15169|34.68.0.0/14|US|arin|2018-09-28|GOOGLE, US
34.86.228.49|15169|34.84.0.0/14|US|arin|2018-09-28|GOOGLE, US
34.86.248.96|15169|34.84.0.0/14|US|arin|2018-09-28|GOOGLE, US
35.200.97.57|15169|35.200.0.0/14|US|arin|2017-03-21|GOOGLE, US
35.204.194.255|15169|35.204.0.0/15|US|arin|2017-03-21|GOOGLE, US
35.215.2.174|15169|35.215.0.0/18|US|arin|2017-09-29|GOOGLE, US
35.243.99.49|15169|35.240.0.0/14|US|arin|2017-09-29|GOOGLE, US
37.113.136.63|41661|37.113.136.0/22|RU|ripencc|2012-02-09|ERTH-CHEL-AS, RU
37.193.227.16|31200|37.193.0.0/16|RU|ripencc|2012-03-21|NTK IPv6 customers, RU
41.117.2.158|16637|41.112.0.0/12|ZA|afrinic|2009-04-22|MTNNS-AS, ZA
46.166.151.116|43350|46.166.144.0/21|NL|ripencc|2010-12-16|NFORCE, NL
46.4.71.70|24940|46.4.0.0/16|DE|ripencc|2010-08-19|HETZNER-AS, DE
47.245.35.107|45102|47.245.32.0/20|US|arin|2016-04-15|CNNIC-ALIBABA-US-NET-AP Alibaba (US) Technology Co., Ltd., CN
47.252.80.192|45102|47.252.64.0/18|US|arin|2016-04-15|CNNIC-ALIBABA-US-NET-AP Alibaba (US) Technology Co., Ltd., CN
47.254.173.87|45102|47.254.160.0/19|US|arin|2016-04-15|CNNIC-ALIBABA-US-NET-AP Alibaba (US) Technology Co., Ltd., CN
5.133.65.82|15440|5.133.65.0/24|LT|ripencc|2018-11-09|BALTNETA Customers AS, LT
5.145.10.122|15600|5.145.0.0/19|CH|ripencc|2012-07-12|FINECOM Quickline AG, CH
5.9.142.41|24940|5.9.0.0/16|DE|ripencc|2012-04-25|HETZNER-AS, DE
5.9.22.98|24940|5.9.0.0/16|DE|ripencc|2012-04-25|HETZNER-AS, DE
5.9.86.83|24940|5.9.0.0/16|DE|ripencc|2012-04-25|HETZNER-AS, DE
50.115.47.50|18450|50.115.46.0/23|US|arin|2011-09-08|WEBNX, US
51.83.180.241|16276|51.83.0.0/16|FR|ripencc|1993-09-01|OVH, FR
52.163.63.49|8075|52.160.0.0/11|US|arin|2015-11-24|MICROSOFT-CORP-MSN-AS-BLOCK, US
52.187.34.156|8075|52.160.0.0/11|US|arin|2015-11-24|MICROSOFT-CORP-MSN-AS-BLOCK, US
54.227.66.57|14618|54.226.0.0/15|US|arin|2012-03-01|AMAZON-AES, US
54.254.181.28|16509|54.254.128.0/17|US|arin|2012-03-01|AMAZON-02, US
54.38.236.0|16276|54.38.0.0/16|FR|ripencc|1992-03-17|OVH, FR
63.247.147.166|30221|63.247.144.0/20|US|arin|2007-04-11|T3COM, US
64.187.169.230|54858|64.187.160.0/20|US|arin|2012-12-06|AS-SBI, US
65.181.90.133|4760|65.181.64.0/19|HK|apnic|2018-05-25|HKTIMS-AP HKT Limited, HK
66.42.163.222|6181|66.42.128.0/18|US|arin|2003-05-28|FUSE-NET, US
68.183.126.132|14061|68.183.112.0/20|US|arin|2018-09-18|DIGITALOCEAN-ASN, US
69.6.9.229|35432|69.6.0.0/20|CY|ripencc|2002-11-21|CABLENET-AS, CY
72.192.162.178|22773|72.192.128.0/18|US|arin|2005-08-03|ASN-CXA-ALL-CCI-22773-RDC, US
73.0.216.24|7922|73.0.0.0/8|US|arin|2005-04-19|COMCAST-7922, US
73.78.105.172|7922|73.0.0.0/8|US|arin|2005-04-19|COMCAST-7922, US
74.51.145.135|16895|74.51.144.0/21|US|arin|2008-07-31|SAN-BRUNO-CABLE, US
77.242.84.34|41046|77.242.80.0/20|CZ|ripencc|2007-02-27|NEJTV-AS, CZ
77.38.15.52|3212|77.38.0.0/17|SI|ripencc|2007-03-22|TELEMACH Broadband Access & Carrier Services, SI
78.129.165.63|20860|78.129.128.0/17|GB|ripencc|2007-04-18|IOMART-AS, GB
78.46.75.10|24940|78.46.0.0/15|DE|ripencc|2007-04-16|HETZNER-AS, DE
79.137.70.55|16276|79.137.0.0/17|FR|ripencc|2007-10-18|OVH, FR
79.142.248.130|50821|79.142.240.0/20|SE|ripencc|2009-06-15|ASHPDC, SE
79.37.147.206|3269|79.36.0.0/15|IT|ripencc|2007-02-21|ASN-IBSNAZ, IT
8.210.85.146|45102|8.210.0.0/17|SG|apnic|1992-12-01|CNNIC-ALIBABA-US-NET-AP Alibaba (US) Technology Co., Ltd., CN
80.242.39.76|44234|80.242.36.0/22|SK|ripencc|2007-12-10|GAYA-AS P.O.Hviezdoslava 23B, SK
80.5.140.25|5089|80.5.0.0/16|GB|ripencc|2001-04-25|NTL, GB
82.69.119.77|13037|82.68.0.0/14|GB|ripencc|2003-04-28|ZEN-AS Zen Internet - UK, GB
83.161.157.200|3265|83.160.0.0/14|NL|ripencc|2004-03-03|XS4ALL-NL Amsterdam, NL
84.71.12.2|5378|84.64.0.0/13|GB|ripencc|2004-03-15|Vodafone, GB
85.190.0.5|29686|85.190.0.0/19|DE|ripencc|2004-12-13|PROBENETWORKS-AS, DE
85.195.219.162|13030|85.195.208.0/20|CH|ripencc|2005-01-13|INIT7, CH
85.196.173.25|29580|85.196.172.0/22|BG|ripencc|2005-01-17|HOMELAN-AS, BG
85.23.7.190|16086|85.23.0.0/16|FI|ripencc|2005-04-06|DNA, FI
88.210.15.24|212702|88.210.0.0/20|RU|ripencc|2005-11-24|KMSKOMAS, RU
89.239.99.102|31608|89.239.96.0/19|PL|ripencc|2007-05-25|GAWEX-AS Plac Wolnosci 11 Szczecinek, PL
90.22.128.98|3215|90.22.128.0/17|FR|ripencc|2006-03-02|France Telecom - Orange, FR
91.187.89.18|6752|91.187.88.0/22|AD|ripencc|2006-11-17|ANDORRA Andorra Telecom, AD
91.237.77.5|198646|91.237.77.0/24|PL|ripencc|2012-03-21|INETHD-AS, PL
94.103.120.173|24904|94.103.120.0/22|FR|ripencc|2018-08-27|KWAOO K-NET SARL, FR
97.127.125.228|209|97.127.0.0/17|US|arin|2007-12-19|CENTURYLINK-US-LEGACY-QWEST, US
