# bitcoin dns seeds and whois results
IP Address|ASN|BGP Prefix|CC|Registry|Allocated|AS Name
100.11.101.157|701|100.11.0.0/16|US|arin|2010-12-28|UUNET, US
104.244.119.130|16803|104.244.112.0/21|US|arin|2014-11-10|MYAKKATECH1, US
104.248.94.72|14061|104.248.80.0/20|US|arin|2018-08-06|DIGITALOCEAN-ASN, US
107.181.189.37|46562|107.181.189.0/24|US|arin|2014-02-14|PERFORMIVE, US
108.168.125.57|40788|108.168.0.0/17|CA|arin|2011-12-29|START-, CA
109.193.211.227|3209|109.192.0.0/15|DE|ripencc|2009-10-06|VODANET International IP-Backbone of Vodafone, DE
109.99.63.159|9050|109.99.0.0/16|RO|ripencc|2009-07-21|RTD Bucharest, Romania, RO
113.52.135.125|133024|113.52.135.0/24|HK|apnic|2010-12-23|XIM-HK Room 704, ChinaChen Leighton Plaza, HK
116.198.162.103|4812|116.198.160.0/21|CN|apnic|2007-04-16|CHINANET-SH-AP China Telecom (Group), CN
12.244.119.30|7018|12.128.0.0/9|US|arin|1983-08-23|ATT-INTERNET4, US
128.14.62.194|21859|128.14.0.0/17|US|arin|2016-09-07|ZNET, US
13.48.1.3|16509|13.48.0.0/15|US|arin|2020-08-05|AMAZON-02, US
13.48.45.12|16509|13.48.0.0/15|US|arin|2020-08-05|AMAZON-02, US
13.48.71.240|16509|13.48.0.0/15|US|arin|2020-08-05|AMAZON-02, US
132.149.139.2|2450|132.149.0.0/16|FR|ripencc|1989-02-16|CNES-Toulouse, EU
136.37.176.126|16591|136.37.176.0/20|US|arin|2015-10-06|GOOGLE-FIBER, US
142.112.65.77|577|142.112.0.0/16|CA|arin|1993-04-05|BACOM, CA
144.76.81.185|24940|144.76.0.0/16|DE|ripencc|1990-11-16|HETZNER-AS, DE
151.240.100.141|31549|151.240.64.0/18|IR|ripencc|2012-08-15|RASANA, IR
151.80.32.171|16276|151.80.0.0/16|IT|ripencc|1991-05-13|OVH, FR
158.174.54.161|8473|158.174.0.0/16|GB|ripencc|1992-03-24|BAHNHOF http://www.bahnhof.net/, SE
164.68.104.88|51167|164.68.104.0/23|DE|ripencc|1992-12-17|CONTABO, DE
168.119.158.58|24940|168.119.0.0/16|DE|ripencc|1994-04-05|HETZNER-AS, DE
168.119.169.2|24940|168.119.0.0/16|DE|ripencc|1994-04-05|HETZNER-AS, DE
176.51.154.240|12389|176.51.128.0/17|RU|ripencc|2011-05-23|ROSTELECOM-AS, RU
176.9.59.199|24940|176.9.0.0/16|DE|ripencc|2011-05-17|HETZNER-AS, DE
178.236.87.138|42560|178.236.80.0/20|BA|ripencc|2010-06-02|BA-TELEMACH-AS Telemach d.o.o. Sarajevo, BA
178.63.65.15|24940|178.63.0.0/16|DE|ripencc|2010-03-02|HETZNER-AS, DE
18.194.123.65|16509|18.194.0.0/15|US|arin|2019-10-07|AMAZON-02, US
18.198.203.56|16509|18.198.0.0/15|US|arin|2019-10-07|AMAZON-02, US
180.233.106.140|10010|180.233.106.0/24|JP|apnic|2009-10-22|TOKAI TOKAI Communications Corporation, JP
181.228.55.57|7303|181.228.32.0/19|AR|lacnic|2012-10-26|Telecom Argentina S.A., AR
183.88.223.208|45629|183.88.0.0/16|TH|apnic|2009-11-13|JASTEL-NETWORK-TH-AP JasTel Network International Gateway, TH
185.107.15.161|204151|185.107.12.0/22|DK|ripencc|2015-07-01|KVIKNET-, DK
185.14.29.22|21100|185.14.28.0/22|UA|ripencc|2012-12-21|ITLDC-NL, UA
185.141.63.163|44901|185.141.63.0/24|CY|ripencc|2018-02-23|BELCLOUD, BG
185.159.81.162|14576|185.159.81.0/24|NL|ripencc|2016-07-12|HOSTING-SOLUTIONS, US
185.18.212.187|48715|185.18.212.0/24|IR|ripencc|2013-02-14|SEFROYEKPARDAZENG-IDC-AS Sefroyek Pardaz Engineering Company, IR
185.219.111.149|205311|185.219.110.0/23|GB|ripencc|2017-08-31|CAMBRIDGE_FIBRE_NETWORKS, GB
185.251.161.54|24904|185.251.160.0/22|FR|ripencc|2018-03-23|KWAOO K-NET SARL, FR
185.254.97.164|60548|185.254.96.0/22|DE|ripencc|2018-04-10|AVORO Avoro, DE
185.53.88.6|213371|185.53.88.0/24|BZ|ripencc|2014-04-08|SQUITTER-NETWORKS, NL
185.85.3.140|20546|185.85.3.0/24|DE|ripencc|2015-01-21|SOPRADO-ANY, DE
190.2.130.195|49981|190.2.128.0/20|CW|lacnic|2006-04-28|WORLDSTREAM, NL
194.187.224.132|34197|194.187.224.0/22|FR|ripencc|2005-09-21|SHRD-AS, FR
201.234.224.223|263771|201.234.224.0/24|AR|lacnic|2005-03-29|IP NET, C.A., VE
206.198.196.82|19693|206.198.196.0/23|US|arin|2018-01-12|CENTRILOGIC-ASN, US
213.155.3.216|41665|213.155.0.0/19|UA|ripencc|2008-04-02|HOSTING-AS http://hosting.ua, UA
216.213.170.114|56329|216.213.128.0/18|GB|ripencc|1999-04-06|GIGACLEAR, GB
217.64.133.220|60098|217.64.128.0/21|RU|ripencc|2008-10-29|INSITINVEST-AS, RU
217.87.216.66|3320|217.80.0.0/12|DE|ripencc|2000-10-26|DTAG Internet service provider operations, DE
220.133.39.61|3462|220.133.0.0/16|TW|apnic|2003-06-09|HINET Data Communication Business Group, TW
220.233.178.199|10143|220.233.128.0/18|AU|apnic|2005-04-11|EXETEL-AS-AP Exetel Pty Ltd, AU
222.186.150.130|23650|222.186.150.0/24|CN|apnic|2004-02-23|CHINANET-JIANGSU-PROVINCE-IDC AS Number for CHINANET jiangsu province backbone, CN
23.91.200.241|11492|23.91.192.0/20|US|arin|2017-12-28|CABLEONE, US
24.141.166.152|7992|24.141.0.0/16|CA|arin|1999-05-03|COGECOWAVE, CA
3.112.50.156|16509|3.112.0.0/14|US|arin|2017-12-20|AMAZON-02, US
31.150.170.28|9145|31.150.0.0/16|DE|ripencc|2011-02-17|EWETEL Cloppenburger Strasse 310, DE
31.171.251.35|50837|31.171.251.0/24|CH|ripencc|2011-04-04|CLOUDSIGMA-AS, CH
34.107.118.237|15169|34.104.0.0/14|US|arin|2018-09-28|GOOGLE, US
34.237.15.134|14618|34.224.0.0/12|US|arin|2016-09-12|AMAZON-AES, US
34.244.102.121|16509|34.240.0.0/13|US|arin|2016-09-12|AMAZON-02, US
34.65.36.169|15169|34.64.0.0/14|US|arin|2018-09-28|GOOGLE, US
34.65.53.140|15169|34.64.0.0/14|US|arin|2018-09-28|GOOGLE, US
34.70.247.64|15169|34.68.0.0/14|US|arin|2018-09-28|GOOGLE, US
34.95.17.184|15169|34.92.0.0/14|US|arin|2018-09-28|GOOGLE, US
35.155.204.42|16509|35.155.0.0/16|US|arin|2016-08-09|AMAZON-02, US
35.182.94.224|16509|35.182.0.0/15|US|arin|2016-08-09|AMAZON-02, US
35.203.41.106|15169|35.200.0.0/14|US|arin|2017-03-21|GOOGLE, US
35.240.7.194|15169|35.240.0.0/14|US|arin|2017-09-29|GOOGLE, US
37.209.81.220|3209|37.209.0.0/17|DE|ripencc|2012-03-29|VODANET International IP-Backbone of Vodafone, DE
37.235.178.123|41268|37.235.128.0/17|RU|ripencc|2012-04-16|LANTA-AS, RU
45.151.125.218|212663|45.151.125.0/24|PL|ripencc|2019-09-10|REMOTE-ADMIN-AS, PL
47.96.111.238|37963|47.96.0.0/15|CN|apnic|1989-01-06|CNNIC-ALIBABA-CN-NET-AP Hangzhou Alibaba Advertising Co.,Ltd., CN
5.135.183.211|16276|5.135.0.0/16|FR|ripencc|2012-07-06|OVH, FR
5.135.34.152|16276|5.135.0.0/16|FR|ripencc|2012-07-06|OVH, FR
5.58.9.231|16223|5.58.0.0/17|UA|ripencc|2012-06-01|LANET-TE, UA
5.61.50.213|58061|5.61.48.0/22|GB|ripencc|2012-06-07|SCALAXY-AS, NL
5.79.123.3|60781|5.79.64.0/18|NL|ripencc|2012-06-14|LEASEWEB-NL-AMS-01 Netherlands, NL
51.15.185.78|12876|51.15.0.0/16|FR|ripencc|1993-09-01|Online SAS, FR
54.219.185.231|16509|54.219.128.0/18|US|arin|2014-10-23|AMAZON-02, US
54.254.122.255|16509|54.254.0.0/17|US|arin|2012-03-01|AMAZON-02, US
54.38.236.0|16276|54.38.0.0/16|FR|ripencc|1992-03-17|OVH, FR
61.164.127.140|4134|61.164.0.0/16|CN|apnic|2000-10-11|CHINANET-BACKBONE No.31,Jin-rong Street, CN
62.107.200.30|197288|62.107.0.0/16|DK|ripencc|2001-06-22|STOFANET, DK
62.112.8.207|49981|62.112.8.0/22|NL|ripencc|1997-05-02|WORLDSTREAM, NL
65.24.37.71|10796|65.24.0.0/17|US|arin|2000-08-22|TWC-10796-MIDWEST, US
66.165.95.169|7393|66.165.64.0/18|US|arin|2002-07-30|CYBERCON, US
66.96.199.249|56300|66.96.199.0/24|SG|apnic|2001-11-01|MYREPUBLIC-SG MyRepublic Ltd., SG
67.205.137.153|14061|67.205.128.0/20|US|arin|2016-04-12|DIGITALOCEAN-ASN, US
72.253.236.217|36149|72.253.0.0/16|US|arin|2006-08-28|HAWAIIAN-TELCOM, US
8.210.177.89|45102|8.210.128.0/17|SG|apnic|1992-12-01|CNNIC-ALIBABA-US-NET-AP Alibaba (US) Technology Co., Ltd., CN
8.210.93.37|45102|8.210.0.0/17|SG|apnic|1992-12-01|CNNIC-ALIBABA-US-NET-AP Alibaba (US) Technology Co., Ltd., CN
80.112.127.9|33915|80.112.64.0/18|NL|ripencc|2001-07-25|TNF-AS, NL
80.29.92.44|3352|80.29.0.0/16|ES|ripencc|2001-07-09|TELEFONICA_DE_ESPANA, ES
81.88.221.190|39709|81.88.208.0/20|RU|ripencc|2006-04-11|EXTREME-AS, RU
82.64.57.228|12322|82.64.0.0/14|FR|ripencc|2003-04-03|PROXAD, FR
85.195.54.110|35706|85.195.0.0/18|SE|ripencc|2005-01-04|NAO, SE
85.208.71.18|42275|85.208.71.0/24|FR|ripencc|2019-02-21|THREEFOURTEEN, FR
85.240.136.169|3243|85.240.0.0/13|PT|ripencc|2004-01-03|MEO-RESIDENCIAL, PT
85.70.156.209|5610|85.70.128.0/17|CZ|ripencc|2004-11-02|O2-CZECH-REPUBLIC, CZ
86.9.60.239|5089|86.9.0.0/16|GB|ripencc|2005-03-29|NTL, GB
88.214.57.95|30823|88.214.57.0/24|DE|ripencc|2018-11-20|COMBAHTON combahton GmbH, DE
88.86.125.50|39392|88.86.96.0/19|CZ|ripencc|2006-02-14|SUPERNETWORK (^_^)/, CZ
89.142.77.30|5603|89.142.64.0/18|SI|ripencc|2006-03-03|SIOL-NET Telekom Slovenije d.d., SI
89.230.96.42|21021|89.230.0.0/16|PL|ripencc|2006-04-21|MULTIMEDIA-AS Cable DTV Internet Voice Provider in Poland., PL
89.247.34.142|8881|89.247.32.0/20|DE|ripencc|2006-05-04|VERSATEL, DE
89.28.102.28|31252|89.28.0.0/17|MD|ripencc|2006-06-29|STARNET-AS, MD
93.180.178.213|30793|93.180.160.0/19|PL|ripencc|2012-09-06|ISTS-, PL
93.242.150.215|3320|93.192.0.0/10|DE|ripencc|2008-02-12|DTAG Internet service provider operations, DE
93.57.81.162|12874|93.56.0.0/14|IT|ripencc|2008-02-25|FASTWEB, IT
93.89.84.93|39326|93.89.80.0/20|GB|ripencc|2008-04-03|HSO-GROUP, GB
93.95.102.81|48347|93.95.100.0/22|RU|ripencc|2008-03-28|MTW-AS, RU
94.112.132.191|6830|94.112.0.0/15|CZ|ripencc|2008-07-09|LIBERTYGLOBAL Liberty Global (formerly UPC Broadband Holding, aka AORTA), NL
94.23.205.110|16276|94.23.0.0/16|FR|ripencc|2008-07-15|OVH, FR
95.143.218.179|29124|95.143.208.0/20|RU|ripencc|2009-09-08|ISKRATELECOM-AS SEVEN-SKY, RU
