# bitcoin dns seeds and whois results
IP Address|ASN|BGP Prefix|CC|Registry|Allocated|AS Name
102.65.190.112|328453|102.65.0.0/16||||Web-Africa-Networks-AS, ZA
103.195.7.25|64022|103.195.7.0/24|HK|apnic|2015-09-02|KAMATERAINC-AS-AP Kamatera, Inc., HK
103.231.191.7|17831|103.231.191.0/24|SG|apnic|2014-05-16|CENTERHOP-SG 8 Burn Road# 15-13, Trivex, SG
104.248.139.211|14061|104.248.128.0/20|US|arin|2018-08-06|DIGITALOCEAN-ASN, US
109.110.81.90|35816|109.110.64.0/19|RU|ripencc|2009-11-19|SEVSTAR Sevastopol, Russia, RU
109.153.169.149|2856|109.144.0.0/12|GB|ripencc|2009-08-06|BT-UK-AS BTnet UK Regional network, GB
109.167.132.201|25408|109.167.128.0/18|RU|ripencc|2009-10-30|WESTCALL-SPB-AS, RU
109.201.140.50|43350|109.201.128.0/19|NL|ripencc|2010-02-12|NFORCE, NL
109.76.184.112|15502|109.76.176.0/20|IE|ripencc|2009-08-27|VODAFONE-IRELAND-ASN, IE
12.191.193.202|7018|12.128.0.0/9|US|arin|1983-08-23|ATT-INTERNET4, US
120.53.0.176|45090|120.53.0.0/18|CN|apnic|2008-03-19|CNNIC-TENCENT-NET-AP Shenzhen Tencent Computer Systems Company Limited, CN
124.170.217.160|7545|124.170.208.0/20|AU|apnic|2007-06-15|TPG-INTERNET-AP TPG Telecom Limited, AU
13.124.74.157|16509|13.124.0.0/16|US|arin|2016-08-09|AMAZON-02, US
13.57.250.92|16509|13.57.0.0/16|US|arin|2016-08-09|AMAZON-02, US
136.58.99.43|16591|136.58.96.0/20|US|arin|2015-10-06|GOOGLE-FIBER, US
142.93.30.86|14061|142.93.16.0/20|US|arin|2018-07-12|DIGITALOCEAN-ASN, US
148.251.236.212|24940|148.251.0.0/16|DE|ripencc|1993-09-01|HETZNER-AS, DE
15.223.114.10|16509|15.222.0.0/15|US|arin|2018-09-27|AMAZON-02, US
161.97.66.114|51167|161.97.66.0/23|DE|ripencc|1992-06-23|CONTABO, DE
162.209.1.233|19994|162.209.0.0/18|US|arin|2013-03-26|RACKSPACE, US
162.244.80.208|19624|162.244.80.0/24|US|arin|2014-03-07|SERVERROOM, US
163.172.49.123|12876|163.172.0.0/16|GB|ripencc|1992-02-14|Online SAS, FR
165.22.44.115|14061|165.22.32.0/20|US|arin|2018-10-16|DIGITALOCEAN-ASN, US
168.119.176.221|24940|168.119.0.0/16|DE|ripencc|1994-04-05|HETZNER-AS, DE
173.212.214.113|51167|173.212.192.0/19|DE|ripencc|2009-10-26|CONTABO, DE
174.138.0.201|14061|174.138.0.0/20|US|arin|2016-04-12|DIGITALOCEAN-ASN, US
174.74.15.121|22773|174.74.0.0/17|US|arin|2009-02-19|ASN-CXA-ALL-CCI-22773-RDC, US
178.128.39.110|14061|178.128.32.0/20|US|ripencc|2010-03-03|DIGITALOCEAN-ASN, US
178.236.87.138|42560|178.236.80.0/20|BA|ripencc|2010-06-02|BA-TELEMACH-AS Telemach d.o.o. Sarajevo, BA
18.130.244.84|16509|18.130.0.0/16|US|arin|2018-06-29|AMAZON-02, US
18.197.172.46|16509|18.196.0.0/15|US|arin|2018-06-29|AMAZON-02, US
18.198.93.234|16509|18.198.0.0/15|US|arin|2018-06-29|AMAZON-02, US
180.59.248.202|4713|180.0.0.0/10|JP|apnic|2009-07-06|OCN NTT Communications Corporation, JP
182.171.246.142|2527|182.168.0.0/14|JP|apnic|2010-04-07|SO-NET Sony Network Communications Inc., JP
185.107.15.161|204151|185.107.12.0/22|DK|ripencc|2015-07-01|KVIKNET-, DK
185.134.213.130|43451|185.134.212.0/22|SK|ripencc|2016-01-18|RADIOLAN-SK-AS, SK
185.193.227.36|21232|185.193.224.0/22|CH|ripencc|2017-03-10|GGAMAUR, CH
185.247.224.191|200651|185.247.224.0/24|SC|ripencc|2018-03-05|FLOKINET, SC
185.41.99.109|208909|185.41.99.0/24|ES|ripencc|2013-11-25|GOUFONE, ES
188.214.133.114|16125|188.214.128.0/21|LT|ripencc|2009-05-08|CHERRYSERVERS1-AS, LT
190.177.114.135|22927|190.176.0.0/15|AR|lacnic|2008-03-11|Telefonica de Argentina, AR
193.106.29.2|50297|193.106.28.0/22|UA|ripencc|2009-11-30|INFIUM, UA
193.42.110.30|60144|193.42.110.0/23|RU|ripencc|2018-10-23|THREE-W-INFRA-AS -- TRANSIT --, NL
195.56.63.4|5588|195.56.0.0/16|HU|ripencc|1996-04-26|GTSCE GTS Central Europe / Antel Germany, CZ
205.234.55.26|6058|205.234.54.0/23|CA|arin|2004-04-06|NORTHWESTEL-INC, CA
207.182.154.178|10297|207.182.128.0/19|US|arin|2008-03-03|ENET-2, US
207.255.61.30|11776|207.255.56.0/21|US|arin|2004-06-14|ATLANTICBB-JOHNSTOWN, US
208.76.252.198|21769|208.76.248.0/21|US|arin|2007-04-06|AS-COLOAM, US
210.183.102.85|4766|210.183.0.0/16|KR|apnic|1998-11-24|KIXS-AS-KR Korea Telecom, KR
212.86.32.106|15366|212.86.32.0/19|DE|ripencc|1999-06-07|DNSNET German Internet Service Providers, DE
216.115.227.160|11668|216.115.224.0/20|US|arin|1998-11-30|WCI-NET, US
216.157.21.35|13768|216.157.0.0/18|CA|arin|1998-12-16|COGECO-PEER1, CA
217.22.141.61|8758|217.22.128.0/20|CH|ripencc|2000-10-02|IWAY, CH
23.111.173.98|29802|23.111.160.0/20|US|arin|2015-11-13|HVC-AS, US
3.0.102.38|16509|3.0.0.0/15|US|arin|2017-12-20|AMAZON-02, US
3.248.223.135|16509|3.248.0.0/13|US|arin|2018-06-25|AMAZON-02, US
31.171.251.35|50837|31.171.251.0/24|CH|ripencc|2011-04-04|CLOUDSIGMA-AS, CH
34.195.96.196|14618|34.192.0.0/12|US|arin|2016-09-12|AMAZON-AES, US
34.226.136.24|14618|34.224.0.0/12|US|arin|2016-09-12|AMAZON-AES, US
34.64.211.116|139070|34.64.0.0/16|US|arin|2018-09-28|GOOGLE-AS-AP Google Asia Pacific Pte. Ltd., SG
34.65.210.142|15169|34.64.0.0/14|US|arin|2018-09-28|GOOGLE, US
34.89.86.67|15169|34.88.0.0/14|US|arin|2018-09-28|GOOGLE, US
34.97.29.29|15169|34.97.0.0/17|US|arin|2018-09-28|GOOGLE, US
35.234.19.151|15169|35.232.0.0/14|US|arin|2017-09-29|GOOGLE, US
35.236.139.60|15169|35.236.0.0/14|US|arin|2017-09-29|GOOGLE, US
39.106.229.113|37963|39.106.0.0/15|CN|apnic|2011-04-05|CNNIC-ALIBABA-CN-NET-AP Hangzhou Alibaba Advertising Co.,Ltd., CN
46.20.2.220|43260|46.20.2.0/24|TR|ripencc|2010-07-22|AS43260, TR
47.61.130.38|12430|47.61.0.0/16|US|arin|2012-05-15|VODAFONE_ES, ES
49.12.82.82|24940|49.12.0.0/16|DE|ripencc|2010-10-21|HETZNER-AS, DE
5.135.179.60|16276|5.135.0.0/16|FR|ripencc|2012-07-06|OVH, FR
5.145.10.122|15600|5.145.0.0/19|CH|ripencc|2012-07-12|FINECOM Quickline AG, CH
54.92.14.235|16509|54.92.0.0/17|US|arin|2013-11-25|AMAZON-02, US
54.93.45.76|16509|54.93.32.0/19|US|arin|2013-11-25|AMAZON-02, US
54.93.91.251|16509|54.93.64.0/18|US|arin|2013-11-25|AMAZON-02, US
58.125.213.139|9318|58.120.0.0/13|KR|apnic|2005-04-28|SKB-AS SK Broadband Co Ltd, KR
59.167.155.59|4739|59.167.0.0/16|AU|apnic|2005-09-14|INTERNODE-AS Internode Pty Ltd, AU
61.244.107.60|9269|61.244.64.0/18|HK|apnic|2004-04-15|HKBN-AS-AP Hong Kong Broadband Network Ltd., HK
62.182.81.225|30860|62.182.80.0/23|UA|ripencc|2008-02-26|YURTEH-AS, UA
62.214.252.201|8881|62.214.240.0/20|DE|ripencc|2000-10-25|VERSATEL, DE
63.249.96.19|11994|63.249.96.0/21|US|arin|2000-12-15|CZIO-ASN, US
64.227.10.167|14061|64.227.0.0/20|US|arin|2019-08-14|DIGITALOCEAN-ASN, US
64.43.138.207|15502|64.43.136.0/22|IE|ripencc|2000-02-14|VODAFONE-IRELAND-ASN, IE
64.98.64.248|32133|64.98.64.0/20|CA|arin|2000-05-18|AS-TING-BACKBONE, US
72.192.162.178|22773|72.192.128.0/18|US|arin|2005-08-03|ASN-CXA-ALL-CCI-22773-RDC, US
72.231.243.181|11351|72.231.128.0/17|US|arin|2005-07-21|TWC-11351-NORTHEAST, US
72.50.240.124|393238|72.50.240.0/24|US|arin|2008-03-24|IMONC, US
73.45.37.120|7922|73.0.0.0/8|US|arin|2005-04-19|COMCAST-7922, US
73.97.177.193|7922|73.0.0.0/8|US|arin|2005-04-19|COMCAST-7922, US
76.100.17.13|7922|76.96.0.0/11|US|arin|2007-01-02|COMCAST-7922, US
77.20.246.114|3209|77.20.0.0/14|DE|ripencc|2008-04-08|VODANET International IP-Backbone of Vodafone, DE
77.95.141.193|28716|77.95.136.0/21|IT|ripencc|2007-06-07|RETELIT-AS Internet Service Provider, IT
78.27.139.13|15683|78.27.128.0/18|UA|ripencc|2010-06-11|DOMASHKA-AS, UA
79.98.105.138|197216|79.98.105.0/24|BG|ripencc|2012-08-29|DELTA-BG-AS, BG
8.209.78.146|45102|8.209.64.0/19|SG|apnic|1992-12-01|CNNIC-ALIBABA-US-NET-AP Alibaba (US) Technology Co., Ltd., CN
8.210.229.68|45102|8.210.128.0/17|SG|apnic|1992-12-01|CNNIC-ALIBABA-US-NET-AP Alibaba (US) Technology Co., Ltd., CN
80.241.209.102|51167|80.241.208.0/23|DE|ripencc|2011-02-14|CONTABO, DE
80.249.1.140|137549|80.249.0.0/20|AU|apnic|2001-11-20|NODE1-AS-AP NODE1 Pty Ltd, AU
81.28.248.132|200276|81.28.248.0/24|ME|ripencc|2018-08-17|BEENET-AS, ME
82.193.102.228|25521|82.193.96.0/19|UA|ripencc|2003-10-08|ASN-ASIPN, UA
83.161.157.200|3265|83.160.0.0/14|NL|ripencc|2004-03-03|XS4ALL-NL Amsterdam, NL
84.17.54.71|60068|84.17.54.0/23|GB|ripencc|2004-07-23|CDN77 (^_^)/, GB
85.215.88.220|6724|85.214.0.0/15|DE|ripencc|2005-02-24|STRATO STRATO AG, DE
85.216.66.241|6830|85.216.64.0/18|DE|ripencc|2005-01-04|LIBERTYGLOBAL Liberty Global (formerly UPC Broadband Holding, aka AORTA), NL
86.163.154.9|2856|86.128.0.0/10|GB|ripencc|2005-02-07|BT-UK-AS BTnet UK Regional network, GB
89.155.11.229|2860|89.155.0.0/18|PT|ripencc|2006-02-07|NOS_COMUNICACOES, PT
89.245.32.65|8881|89.245.32.0/20|DE|ripencc|2006-05-04|VERSATEL, DE
89.247.10.75|8881|89.247.0.0/20|DE|ripencc|2006-05-04|VERSATEL, DE
90.43.10.95|3215|90.43.0.0/16|FR|ripencc|2006-03-02|France Telecom - Orange, FR
91.159.158.36|719|91.152.0.0/13|FI|ripencc|2006-09-06|ELISA-AS Helsinki, Finland, FI
91.195.192.38|62136|91.195.192.0/24|GB|ripencc|2007-10-04|U46, GB
91.204.149.5|42765|91.204.148.0/22|RU|ripencc|2008-06-23|INFOTECH-LINER-AS, RU
91.224.59.14|50833|91.224.59.0/24|CZ|ripencc|2011-02-02|FIBERTEL-AS # upstreams, GB
91.237.77.5|198646|91.237.77.0/24|PL|ripencc|2012-03-21|INETHD-AS, PL
94.231.253.18|35224|94.231.253.0/24|NL|ripencc|2009-06-23|PLINQ, NL
94.242.213.40|5577|94.242.213.0/24|LU|ripencc|2008-10-21|ROOT, LU
95.82.146.70|31246|95.82.128.0/18|CZ|ripencc|2008-12-11|NETBOX-AS NETBOX Autonomous system, CZ
98.11.142.34|11351|98.10.0.0/15|US|arin|2007-01-29|TWC-11351-NORTHEAST, US
98.170.208.161|22773|98.170.192.0/18|US|arin|2007-07-20|ASN-CXA-ALL-CCI-22773-RDC, US
