# bitcoin dns seeds and whois results
IP Address|ASN|BGP Prefix|CC|Registry|Allocated|AS Name
104.173.222.17|20001|104.172.0.0/14|US|arin|2014-08-13|TWC-20001-PACWEST, US
107.11.115.68|10796|107.11.0.0/16|US|arin|2010-09-23|TWC-10796-MIDWEST, US
110.32.136.131|4804|110.32.128.0/17|AU|apnic|2009-02-24|MPX-AS Microplex PTY LTD, AU
121.78.223.195|9286|121.78.192.0/18|KR|apnic|2006-06-20|KINXIDC-AS-KR KINX, KR
124.114.200.187|4134|124.114.0.0/15|CN|apnic|2006-03-31|CHINANET-BACKBONE No.31,Jin-rong Street, CN
13.127.108.110|16509|13.126.0.0/15|US|arin|2016-08-09|AMAZON-02, US
13.239.85.6|16509|13.236.0.0/14|US|arin|2019-10-01|AMAZON-02, US
13.88.177.3|8075|13.64.0.0/11|US|arin|2015-03-26|MICROSOFT-CORP-MSN-AS-BLOCK, US
134.122.40.106|14061|134.122.32.0/20|US|arin|2019-09-06|DIGITALOCEAN-ASN, US
139.99.125.188|16276|139.99.0.0/17|CA|arin|2016-09-09|OVH, FR
142.202.24.135|396872|142.202.24.0/24|US|arin|2019-12-18|ADVANCED-INTERNET, US
142.93.102.231|14061|142.93.96.0/20|US|arin|2018-07-12|DIGITALOCEAN-ASN, US
143.110.178.161|14061|143.110.176.0/20|US|arin|2020-01-17|DIGITALOCEAN-ASN, US
143.110.252.127|14061|143.110.240.0/20|US|arin|2020-01-17|DIGITALOCEAN-ASN, US
144.91.70.224|51167|144.91.70.0/23|DE|ripencc|1990-11-20|CONTABO, DE
159.100.250.198|61098|159.100.248.0/21|CH|ripencc|1992-03-31|EXOSCALE, CH
163.172.181.191|12876|163.172.0.0/16|GB|ripencc|1992-02-14|Online SAS, FR
169.0.67.76|37611|169.0.0.0/15|ZA|afrinic|2015-07-01|Afrihost, ZA
171.96.111.0|17552|171.96.64.0/18|TH|apnic|2011-03-07|TRUEONLINE-AS-AP True Online, TH
174.0.252.47|6327|174.0.252.0/22|CA|arin|2008-11-19|SHAW, CA
178.128.35.139|14061|178.128.32.0/20|US|ripencc|2010-03-03|DIGITALOCEAN-ASN, US
178.183.99.149|12912|178.180.0.0/14|PL|ripencc|2010-02-03|TM, PL
178.198.130.101|3303|178.198.0.0/15|CH|ripencc|2010-02-24|SWISSCOM Swisscom (Switzerland) Ltd, CH
178.236.141.221|56724|178.236.140.0/23|RU|ripencc|2010-06-09|TINCO, RU
178.236.87.138|42560|178.236.80.0/20|BA|ripencc|2010-06-02|BA-TELEMACH-AS Telemach d.o.o. Sarajevo, BA
18.163.100.62|16509|18.163.0.0/16|US|arin|2019-10-07|AMAZON-02, US
18.163.113.110|16509|18.163.0.0/16|US|arin|2019-10-07|AMAZON-02, US
18.166.71.221|16509|18.166.0.0/15|US|arin|2019-10-07|AMAZON-02, US
18.228.31.45|16509|18.228.0.0/16|US|arin|2019-10-07|AMAZON-02, US
181.45.71.86|27747|181.45.64.0/20|AR|lacnic|2013-12-16|Telecentro S.A., AR
185.128.245.68|51184|185.128.244.0/22|AT|ripencc|2015-11-27|FONIRA, AT
185.132.133.160|49981|185.132.132.0/22|NL|ripencc|2015-12-22|WORLDSTREAM, NL
185.17.143.220|48757|185.17.140.0/22|RU|ripencc|2013-01-30|TRUSTINFO TrustInfo, Moscow, Russia, RU
185.176.221.101|39845|185.176.221.0/24|LV|ripencc|2016-11-08|LV-2CLOUD-ASN16, LV
185.64.106.226|61272|185.64.104.0/22|LT|ripencc|2014-07-18|IST-AS, LT
188.222.178.151|5607|188.220.0.0/14|GB|ripencc|2009-05-26|BSKYB-BROADBAND-AS, GB
188.241.48.201|16192|188.241.48.0/24|RO|ripencc|2009-06-23|ROM-ELECTRONIC-AS, RO
188.243.116.199|35807|188.242.0.0/15|RU|ripencc|2009-06-23|SKYNET-SPB-AS, RU
188.94.42.24|49375|188.94.40.0/21|GB|ripencc|2009-05-28|AS-TRUNKNETWORKS Trunk Networks - www.trunknetworks.com, GB
190.177.49.57|22927|190.176.0.0/15|AR|lacnic|2008-03-11|Telefonica de Argentina, AR
193.138.218.72|39351|193.138.216.0/22|SE|ripencc|2006-02-06|ESAB-AS, SE
193.29.13.84|42397|193.29.13.0/24|RO|ripencc|2018-04-25|***************************************, RO
194.146.226.212|13193|194.146.224.0/22|FR|ripencc|2003-11-10|ASN-NERIM, FR
195.211.161.124|44341|195.211.161.0/24|RU|ripencc|2009-10-20|SEVONLINE, RU
199.15.250.210|29713|199.15.248.0/21|US|arin|2010-07-07|ELIA-60, US
202.73.14.205|55720|202.73.14.0/24|MY|apnic|2004-12-03|GIGABIT-MY Gigabit Hosting Sdn Bhd, MY
206.125.169.164|25795|206.125.168.0/21|US|arin|2008-12-08|ARPNET, US
206.189.137.124|14061|206.189.128.0/20|US|arin|1995-11-15|DIGITALOCEAN-ASN, US
208.59.132.133|6079|208.58.0.0/15|US|arin|1999-09-02|RCN-AS, US
212.230.156.238|15704|212.230.156.0/24|ES|ripencc|2000-09-14|AS15704, ES
212.91.163.140|8717|212.91.160.0/19|BG|ripencc|1999-07-30|A1, BG
213.125.67.108|33915|213.125.0.0/17|NL|ripencc|1999-09-16|TNF-AS, NL
213.219.144.164|9031|213.219.128.0/18|BE|ripencc|2000-08-30|EDPNET, BE
217.23.6.148|49981|217.23.0.0/20|NL|ripencc|2009-02-04|WORLDSTREAM, NL
217.64.133.220|60098|217.64.128.0/21|RU|ripencc|2008-10-29|INSITINVEST-AS, RU
27.255.79.116|45382|27.255.79.0/24|KR|apnic|2010-06-22|EHOSTIDC-AS-KR EHOSTICT, KR
3.0.102.38|16509|3.0.0.0/15|US|arin|2017-12-20|AMAZON-02, US
3.1.220.100|16509|3.0.0.0/15|US|arin|2017-12-20|AMAZON-02, US
3.120.158.102|16509|3.120.0.0/14|US|arin|2017-12-20|AMAZON-02, US
3.121.71.208|16509|3.120.0.0/14|US|arin|2017-12-20|AMAZON-02, US
3.25.130.248|16509|3.24.0.0/14|US|arin|2017-12-20|AMAZON-02, US
31.3.135.181|199662|31.3.134.0/23|CH|ripencc|2011-04-08|EXION, CH
31.30.126.217|16019|31.30.0.0/16|CZ|ripencc|2011-03-15|VODAFONE-CZ-AS, CZ
34.121.56.218|15169|34.120.0.0/14|US|arin|2018-09-28|GOOGLE, US
34.193.35.86|14618|34.192.0.0/12|US|arin|2016-09-12|AMAZON-AES, US
34.210.198.230|16509|34.208.0.0/12|US|arin|2016-09-12|AMAZON-02, US
34.64.213.1|139070|34.64.0.0/16|US|arin|2018-09-28|GOOGLE-AS-AP Google Asia Pacific Pte. Ltd., SG
35.183.60.98|16509|35.182.0.0/15|US|arin|2016-08-09|AMAZON-02, US
35.199.76.65|15169|35.199.0.0/17|US|arin|2017-03-21|GOOGLE, US
35.220.138.138|15169|35.220.0.0/14|US|arin|2017-09-29|GOOGLE, US
35.220.191.191|15169|35.220.0.0/14|US|arin|2017-09-29|GOOGLE, US
37.187.3.112|16276|37.187.0.0/16|FR|ripencc|2012-03-20|OVH, FR
37.205.14.137|24971|37.205.12.0/22|CZ|ripencc|2012-03-27|MASTER-AS Czech Republic / www.master.cz, CZ
37.97.249.17|20857|37.97.128.0/17|NL|ripencc|2012-02-02|TRANSIP-AS Amsterdam, the Netherlands, NL
43.225.157.152|133115|43.225.157.0/24|HK|apnic|2016-07-11|HKKFGL-AS-AP HK Kwaifong Group Limited, HK
46.126.217.197|6830|46.126.0.0/16|CH|ripencc|2010-06-01|LIBERTYGLOBAL Liberty Global (formerly UPC Broadband Holding, aka AORTA), NL
46.173.211.21|47196|46.173.211.0/24|RU|ripencc|2011-02-07|GARANT-PARK-INTERNET, RU
46.182.230.59|3212|46.182.224.0/21|SI|ripencc|2010-11-29|TELEMACH Broadband Access & Carrier Services, SI
46.255.172.148|15600|46.255.168.0/21|CH|ripencc|2010-12-31|FINECOM Quickline AG, CH
46.32.53.120|39642|46.32.32.0/19|DK|ripencc|2010-08-12|DK-ESS-AS, DK
46.4.78.148|24940|46.4.0.0/16|DE|ripencc|2010-08-19|HETZNER-AS, DE
47.102.193.203|37963|47.102.0.0/15|CN|apnic|1989-01-06|CNNIC-ALIBABA-CN-NET-AP Hangzhou Alibaba Advertising Co.,Ltd., CN
47.149.32.120|5650|47.144.0.0/13|US|arin|2015-08-28|FRONTIER-FRTR, US
47.90.4.203|45102|47.90.0.0/18|US|arin|2015-05-18|CNNIC-ALIBABA-US-NET-AP Alibaba (US) Technology Co., Ltd., CN
5.182.209.18|62068|5.182.209.0/24|NL|ripencc|2019-04-09|SPECTRAIP SpectraIP B.V., NL
5.188.56.51|49505|5.188.56.0/22|RU|ripencc|2012-08-09|SELECTEL, RU
5.188.56.52|49505|5.188.56.0/22|RU|ripencc|2012-08-09|SELECTEL, RU
5.9.225.134|24940|5.9.0.0/16|DE|ripencc|2012-04-25|HETZNER-AS, DE
54.221.1.109|14618|54.221.0.0/16|US|arin|2014-10-23|AMAZON-AES, US
61.102.68.30|17839|61.102.64.0/19|KR|apnic|2001-03-21|DREAMPLUS-AS-KR LG HelloVision Corp., KR
61.244.107.60|9269|61.244.64.0/18|HK|apnic|2004-04-15|HKBN-AS-AP Hong Kong Broadband Network Ltd., HK
62.210.141.185|12876|62.210.0.0/16|FR|ripencc|2000-10-26|Online SAS, FR
62.228.117.133|6866|62.228.96.0/19|CY|ripencc|2009-07-07|CYTA-NETWORK Internet Services, CY
66.49.193.206|33139|66.49.192.0/20|CA|arin|2004-02-10|CANACA-210, CA
68.48.131.251|7922|68.32.0.0/11|US|arin|2001-11-29|COMCAST-7922, US
69.64.51.41|30083|69.64.32.0/19|US|arin|2003-07-30|AS-30083-GO-DADDY-COM-LLC, US
77.242.84.34|41046|77.242.80.0/20|CZ|ripencc|2007-02-27|NEJTV-AS, CZ
78.217.36.106|12322|78.192.0.0/11|FR|ripencc|2007-03-15|PROXAD, FR
78.23.204.168|6848|78.22.0.0/15|BE|ripencc|2007-05-14|TELENET-AS, BE
80.242.39.76|44234|80.242.36.0/22|SK|ripencc|2007-12-10|GAYA-AS P.O.Hviezdoslava 23B, SK
82.202.68.231|25512|82.202.64.0/18|CZ|ripencc|2003-09-23|CDT-AS The Czech Republic, CZ
83.162.2.12|3265|83.160.0.0/14|NL|ripencc|2004-03-03|XS4ALL-NL Amsterdam, NL
84.1.201.241|5483|84.0.0.0/14|HU|ripencc|2004-09-17|MAGYAR-TELEKOM-MAIN-AS Magyar Telekom Nyrt., HU
87.62.100.86|3292|87.48.0.0/12|DK|ripencc|2005-05-20|TDC TDC A/S, DK
88.85.160.29|24699|88.85.160.0/24|RU|ripencc|2006-02-08|IVTELECOM-AS, RU
89.238.77.110|34240|89.238.64.0/18|DE|ripencc|2006-07-21|MANITU, DE
91.121.133.211|16276|91.121.0.0/16|FR|ripencc|2006-09-20|OVH, FR
91.193.237.116|42916|91.193.236.0/23|RU|ripencc|2007-05-09|IT-AS, RU
91.232.105.116|49981|91.232.105.0/24|NL|ripencc|2011-11-09|WORLDSTREAM, NL
91.83.92.27|12301|91.83.92.0/23|HU|ripencc|2006-07-27|INVITECH, HU
92.130.187.57|3215|92.130.0.0/16|FR|ripencc|2007-07-12|France Telecom - Orange, FR
92.33.191.207|2119|92.32.0.0/14|SE|ripencc|2007-11-28|TELENOR-NEXTEL Telenor Norge AS, NO
93.89.84.93|39326|93.89.80.0/20|GB|ripencc|2008-04-03|HSO-GROUP, GB
94.140.123.164|43513|94.140.123.0/24|LV|ripencc|2008-12-03|NANO-AS, LV
94.181.46.72|41661|94.181.32.0/20|RU|ripencc|2008-09-11|ERTH-CHEL-AS, RU
95.216.97.16|24940|95.216.0.0/16|DE|ripencc|2009-02-24|HETZNER-AS, DE
96.234.164.254|701|96.234.128.0/17|US|arin|2006-12-29|UUNET, US
96.252.37.32|701|96.252.0.0/17|US|arin|2006-12-29|UUNET, US
