# bitcoin dns seeds and whois results
IP Address|ASN|BGP Prefix|CC|Registry|Allocated|AS Name
104.143.2.195|26863|104.143.2.0/23|US|arin|2020-10-07|GAMESERVERKINGS, US
104.236.43.172|14061|104.236.0.0/18|US|arin|2014-10-28|DIGITALOCEAN-ASN, US
104.238.220.199|23470|104.238.220.0/24|US|arin|2018-04-13|RELIABLESITE, US
107.181.189.37|46562|107.181.189.0/24|US|arin|2014-02-14|PERFORMIVE, US
114.23.254.130|56030|114.23.0.0/16|NZ|apnic|2011-01-10|VOYAGERNET-AS-AP Voyager Internet Ltd., NZ
123.203.163.128|9269|123.203.128.0/18|HK|apnic|2006-12-18|HKBN-AS-AP Hong Kong Broadband Network Ltd., HK
13.49.72.71|16509|13.48.0.0/15|US|arin|2018-07-11|AMAZON-02, US
13.53.170.167|16509|13.53.0.0/16|US|arin|2016-08-09|AMAZON-02, US
130.185.109.17|51191|130.185.104.0/21|DE|ripencc|2011-10-24|XIRRA, DE
134.122.145.149|64050|134.122.145.0/24|SG|apnic|1989-05-23|BCPL-SG BGPNET Global ASN, SG
141.151.238.103|701|141.151.224.0/19|US|arin|1990-07-23|UUNET, US
141.193.115.2|19324|141.193.115.0/24|US|arin|2018-06-12|DOSARREST, US
144.76.93.214|24940|144.76.0.0/16|DE|ripencc|1990-11-16|HETZNER-AS, DE
15.237.117.105|16509|15.236.0.0/15|US|arin|2018-09-27|AMAZON-02, US
157.245.150.18|14061|157.245.144.0/20|US|arin|2019-05-09|DIGITALOCEAN-ASN, US
159.65.187.247|14061|159.65.176.0/20|US|arin|2017-10-24|DIGITALOCEAN-ASN, US
168.119.103.204|24940|168.119.0.0/16|DE|ripencc|1994-04-05|HETZNER-AS, DE
172.93.166.135|22653|172.93.166.0/24|US|arin|2015-06-01|GLOBALCOMPASS, US
173.212.221.11|51167|173.212.192.0/19|DE|ripencc|2009-10-26|CONTABO, DE
173.249.24.64|51167|173.249.24.0/23|DE|ripencc|2010-05-26|CONTABO, DE
176.20.60.141|3292|176.20.0.0/14|DK|ripencc|2011-05-19|TDC TDC A/S, DK
178.236.137.63|42775|178.236.136.0/23|RU|ripencc|2010-06-09|DSRT-NET, RU
178.236.87.138|42560|178.236.80.0/20|BA|ripencc|2010-06-02|BA-TELEMACH-AS Telemach d.o.o. Sarajevo, BA
178.78.69.28|12390|178.78.64.0/18|GB|ripencc|2010-04-22|KINGSTON-UK-AS, GB
18.132.37.244|16509|18.132.0.0/14|US|arin|2018-06-29|AMAZON-02, US
180.218.6.90|24164|180.218.0.0/18|TW|apnic|2009-10-06|UBBNET-AS-TW UNION BROADBAND NETWORK, TW
184.171.208.109|40788|184.171.208.0/20|CA|arin|2010-10-19|START-, CA
185.107.15.161|204151|185.107.12.0/22|DK|ripencc|2015-07-01|KVIKNET-, DK
185.148.3.227|203003|185.148.0.0/22|FI|ripencc|2016-04-18|MAGNA-CAPAX, FI
185.193.227.36|21232|185.193.224.0/22|CH|ripencc|2017-03-10|GGAMAUR, CH
185.26.28.170|31415|185.26.28.0/24|RU|ripencc|2013-05-14|SVSCOMM-AS, RU
188.121.252.236|29075|188.121.224.0/19|FR|ripencc|2009-05-13|IELO IELO Main Network, FR
188.68.216.61|49505|188.68.216.0/23|RU|ripencc|2009-08-25|SELECTEL, RU
192.43.209.197|10148|192.43.209.0/24|AU|apnic|1988-12-05|UNIMELB-AS-AP The University of Melbourne, Melbourne, Victoria, AU
193.159.133.251|3320|193.158.0.0/15|DE|ripencc|1997-04-16|DTAG Internet service provider operations, DE
194.126.113.135|3249|194.126.96.0/19|EE|ripencc|1995-12-19|ESTPAK, EE
194.176.118.175|49352|194.176.118.0/24|RU|ripencc|2006-07-26|LOGOL-AS, RU
194.219.62.23|1241|194.219.0.0/17|GR|ripencc|1995-12-20|FORTHNET-GR Forthnet, EU
195.135.194.8|39149|195.135.194.0/24|RO|ripencc|2009-01-14|STS International SRL, RO
195.220.95.131|2200|195.220.0.0/16|FR|ripencc|1996-07-18|FR-RENATER Reseau National de telecommunications pour la Technologie, FR
2.30.116.253|12576|2.30.0.0/16|GB|ripencc|2010-09-21|EE Ltd, GB
2.39.173.126|30722|2.39.128.0/17|IT|ripencc|2010-04-29|VODAFONE-IT-ASN, IT
200.7.173.110|27828|200.7.173.0/24|BO|lacnic|2006-03-07|UNIVERSIDAD MAYOR DE SAN ANDRES, BO
203.51.27.108|1221|203.48.0.0/14|AU|apnic|1994-09-02|ASN-TELSTRA Telstra Corporation Ltd, AU
204.15.11.8|13331|204.15.8.0/21|US|arin|2015-03-02|METAPEER-INC, US
206.54.209.61|12177|206.54.192.0/19|US|arin|2004-05-27|ETS-TELEPHONE-COMPANY, US
208.93.231.240|29893|208.93.230.0/23|US|arin|2011-04-18|CHATANGO, US
213.152.106.56|57154|213.152.96.0/19|DE|ripencc|2008-10-10|SWKN Stadtwerke Konstanz GmbH, DE
213.155.3.216|41665|213.155.0.0/19|UA|ripencc|2008-04-02|HOSTING-AS http://hosting.ua, UA
213.168.190.59|15614|213.168.176.0/20|CZ|ripencc|2003-04-08|DRAGON Dragon Internet a.s., CZ
216.8.128.72|7057|216.8.128.0/19|CA|arin|2001-01-04|MANAGEDNETWORK, CA
219.153.20.224|134420|219.153.20.0/23|CN|apnic|2002-03-21|CHINATELECOM-CHONGQING-IDC Chongqing Telecom, CN
3.0.178.55|16509|3.0.0.0/15|US|arin|2017-12-20|AMAZON-02, US
3.230.162.30|14618|3.224.0.0/12|US|arin|2018-06-25|AMAZON-AES, US
3.8.165.235|16509|3.8.0.0/14|US|arin|2017-12-20|AMAZON-02, US
3.87.158.26|14618|3.80.0.0/12|US|arin|2017-12-20|AMAZON-AES, US
31.130.136.198|34602|31.130.128.0/19|RU|ripencc|2011-05-02|STARLINK-AS Moscow, Russia, RU
31.173.48.61|25159|31.173.32.0/19|RU|ripencc|2011-04-04|SONICDUO-AS, RU
31.3.135.181|199662|31.3.134.0/23|CH|ripencc|2011-04-08|EXION, CH
34.125.46.3|15169|34.124.0.0/14|US|arin|2018-09-28|GOOGLE, US
34.82.26.8|15169|34.80.0.0/14|US|arin|2018-09-28|GOOGLE, US
34.82.27.114|15169|34.80.0.0/14|US|arin|2018-09-28|GOOGLE, US
34.83.54.3|15169|34.80.0.0/14|US|arin|2018-09-28|GOOGLE, US
35.203.49.27|15169|35.200.0.0/14|US|arin|2017-03-21|GOOGLE, US
35.247.39.60|15169|35.244.0.0/14|US|arin|2017-09-29|GOOGLE, US
38.242.12.100|64249|38.242.12.0/24|US|arin|1991-04-16|ENDOFFICE, US
43.225.61.103|135352|43.225.60.0/22|AU|apnic|2014-12-02|TSGNLCO-AS-AP The Signal Co. Wireless, AU
45.154.252.98|61072|45.154.252.0/24|GB|ripencc|2019-09-17|EZNET-AS Used by Electrum Technologies GmbH, GB
45.36.184.6|11426|45.36.0.0/15|US|arin|2015-02-11|TWC-11426-CAROLINAS, US
45.89.16.45|35048|45.89.16.0/22|RU|ripencc|2019-06-20|BITERIKA-AS, RU
46.127.117.25|6830|46.127.0.0/16|CH|ripencc|2010-06-01|LIBERTYGLOBAL Liberty Global (formerly UPC Broadband Holding, aka AORTA), NL
46.226.111.23|29169|46.226.108.0/22|FR|ripencc|2011-01-21|GANDI-AS Domain name registrar - http://www.gandi.net, FR
47.225.11.69|20115|47.225.0.0/17|US|arin|2017-11-27|CHARTER-20115, US
47.242.87.227|45102|47.242.0.0/16|US|arin|2016-04-15|CNNIC-ALIBABA-US-NET-AP Alibaba (US) Technology Co., Ltd., CN
5.166.210.181|42682|5.166.208.0/22|RU|ripencc|2012-07-25|ERTH-NNOV-AS, RU
5.8.71.45|199524|5.8.71.0/24|LU|ripencc|2012-04-25|GCORE, LU
5.9.67.183|24940|5.9.0.0/16|DE|ripencc|2012-04-25|HETZNER-AS, DE
52.15.215.225|16509|52.15.128.0/17|US|arin|1991-12-19|AMAZON-02, US
52.163.63.49|8075|52.160.0.0/11|US|arin|2015-11-24|MICROSOFT-CORP-MSN-AS-BLOCK, US
52.57.53.177|16509|52.57.0.0/16|US|arin|2015-09-02|AMAZON-02, US
54.213.169.129|16509|54.213.0.0/16|US|arin|2013-02-19|AMAZON-02, US
62.171.154.12|51167|62.171.154.0/23|DE|ripencc|2000-08-18|CONTABO, DE
63.228.117.99|209|63.228.112.0/21|US|arin|1999-06-07|CENTURYLINK-US-LEGACY-QWEST, US
63.249.96.19|11994|63.249.96.0/21|US|arin|2000-12-15|CZIO-ASN, US
65.19.155.88|6939|65.19.128.0/18|US|arin|2002-04-17|HURRICANE, US
66.240.237.155|10439|66.240.192.0/18|US|arin|2003-06-17|CARINET, US
68.142.33.36|12282|68.142.32.0/19|US|arin|2006-01-12|GMA, US
72.230.237.11|11351|72.230.0.0/16|US|arin|2005-07-21|TWC-11351-NORTHEAST, US
73.75.199.44|7922|73.0.0.0/8|US|arin|2005-04-19|COMCAST-7922, US
73.98.227.247|7922|73.0.0.0/8|US|arin|2005-04-19|COMCAST-7922, US
74.207.249.55|63949|74.207.249.0/24|US|arin|2009-01-14|LINODE-AP Linode, LLC, US
74.220.255.190|23175|74.220.254.0/23|US|arin|2008-07-24|POGOZONE, US
77.247.178.130|43350|77.247.176.0/21|NL|ripencc|2007-06-26|NFORCE, NL
77.38.15.52|3212|77.38.0.0/17|SI|ripencc|2007-03-22|TELEMACH Broadband Access & Carrier Services, SI
78.47.110.223|24940|78.46.0.0/15|DE|ripencc|2007-04-16|HETZNER-AS, DE
79.98.159.7|44065|79.98.152.0/21|CZ|ripencc|2007-11-06|NETAIR-AS, CZ
79.98.31.253|62282|79.98.24.0/21|LT|ripencc|2007-10-23|RACKRAY UAB Rakrejus, LT
80.133.46.81|3320|80.128.0.0/12|DE|ripencc|2001-08-06|DTAG Internet service provider operations, DE
80.93.213.246|20649|80.93.213.0/24|TR|ripencc|2005-07-25|ASFIBERSUNUCU, TR
81.117.225.245|20959|81.117.0.0/16|IT|ripencc|2002-07-08|TELECOM-ITALIA-DATA-COM, IT
82.199.102.10|30784|82.199.96.0/19|RU|ripencc|2003-12-01|ISKRATELECOM-AS SEVEN-SKY, RU
82.65.42.106|12322|82.64.0.0/14|FR|ripencc|2003-04-03|PROXAD, FR
82.69.119.77|13037|82.68.0.0/14|GB|ripencc|2003-04-28|ZEN-AS Zen Internet - UK, GB
83.99.19.116|6661|83.99.0.0/17|LU|ripencc|2004-01-20|EPT-LU Entreprise des P. et T. Luxembourg, LU
85.10.192.158|24940|85.10.192.0/18|DE|ripencc|2005-02-23|HETZNER-AS, DE
85.10.203.112|24940|85.10.192.0/18|DE|ripencc|2005-02-23|HETZNER-AS, DE
85.119.80.219|8943|85.119.80.0/21|GB|ripencc|2010-03-03|JUMP, GB
88.86.125.50|39392|88.86.96.0/19|CZ|ripencc|2006-02-14|SUPERNETWORK (^_^)/, CZ
88.86.243.241|48432|88.86.240.0/20|FR|ripencc|2006-02-15|SCGS-AS, FR
89.14.159.116|6805|89.14.0.0/16|DE|ripencc|2006-07-19|TDDE-ASN1, DE
90.126.42.245|3215|90.126.0.0/16|FR|ripencc|2006-03-02|France Telecom - Orange, FR
91.219.25.232|50448|91.219.24.0/22|RU|ripencc|2010-09-02|SYSTEM-SERVICE-AS, RU
93.57.81.162|12874|93.56.0.0/14|IT|ripencc|2008-02-25|FASTWEB, IT
94.23.16.193|16276|94.23.0.0/16|FR|ripencc|2008-07-15|OVH, FR
95.217.35.79|24940|95.217.0.0/16|DE|ripencc|2009-02-24|HETZNER-AS, DE
95.82.146.70|31246|95.82.128.0/18|CZ|ripencc|2008-12-11|NETBOX-AS NETBOX Autonomous system, CZ
96.225.173.33|701|96.225.128.0/18|US|arin|2006-12-29|UUNET, US
99.119.110.201|7018|99.112.0.0/12|US|arin|2008-02-25|ATT-INTERNET4, US
