# bitcoin dns seeds and whois results
IP Address|ASN|BGP Prefix|CC|Registry|Allocated|AS Name
104.192.205.249|21743|104.192.204.0/22|US|arin|2014-09-10|ANL-36, US
109.173.41.95|42610|109.173.0.0/17|RU|ripencc|2009-11-20|NCNET-AS, RU
116.234.186.234|4812|116.234.0.0/16|CN|apnic|2007-04-04|CHINANET-SH-AP China Telecom (Group), CN
118.136.221.159|23700|118.136.192.0/19|ID|apnic|2007-09-14|FASTNET-AS-ID Linknet-Fastnet ASN, ID
125.238.196.194|4771|125.238.192.0/21|NZ|apnic|2006-11-01|SPARKNZ Spark New Zealand Trading Ltd., NZ
13.244.108.188|16509|13.244.0.0/15|US|arin|2018-07-11|AMAZON-02, US
13.48.31.194|16509|13.48.0.0/15|US|arin|2020-08-05|AMAZON-02, US
13.71.136.69|8075|13.64.0.0/11|US|arin|2015-03-26|MICROSOFT-CORP-MSN-AS-BLOCK, US
136.58.103.30|16591|136.58.96.0/20|US|arin|2015-10-06|GOOGLE-FIBER, US
148.251.131.164|24940|148.251.0.0/16|DE|ripencc|1993-09-01|HETZNER-AS, DE
157.138.20.22|137|157.138.0.0/16|IT|ripencc|2004-04-07|ASGARR Consortium GARR, IT
159.196.228.157|4764|159.196.228.0/22|AU|apnic|1992-05-26|WIDEBAND-AS-AP Aussie Broadband, AU
159.65.95.133|14061|159.65.80.0/20|US|arin|2017-10-24|DIGITALOCEAN-ASN, US
162.0.220.156|22612|162.0.220.0/24|US|arin|2020-09-03|NAMECHEAP-NET, US
162.156.219.13|852|162.156.192.0/18|CA|arin|2013-03-07|ASN852, CA
162.218.218.163|29844|162.218.218.0/24|US|arin|2013-08-07|SENAWAVE, US
162.250.189.53|26832|162.250.188.0/22|CA|arin|2013-12-26|RICAWEBSERVICES, CA
168.119.158.57|24940|168.119.0.0/16|DE|ripencc|1994-04-05|HETZNER-AS, DE
174.128.244.218|46844|174.128.244.0/24|US|arin|2010-11-17|ST-BGP, US
174.138.0.201|14061|174.138.0.0/20|US|arin|2016-04-12|DIGITALOCEAN-ASN, US
176.212.185.153|56420|176.212.184.0/22|RU|ripencc|2011-09-28|RYAZAN-AS, RU
176.99.2.207|197695|176.99.2.0/24|RU|ripencc|2012-06-26|AS-REG, RU
178.128.120.178|14061|178.128.112.0/20|US|ripencc|2010-03-03|DIGITALOCEAN-ASN, US
178.236.87.138|42560|178.236.80.0/20|BA|ripencc|2010-06-02|BA-TELEMACH-AS Telemach d.o.o. Sarajevo, BA
18.192.62.41|16509|18.192.0.0/15|US|arin|2019-10-07|AMAZON-02, US
18.228.10.250|16509|18.228.0.0/16|US|arin|2019-10-07|AMAZON-02, US
182.55.245.25|4657|182.55.245.0/24|SG|apnic|2010-03-01|STARHUB-INTERNET StarHub Ltd, SG
184.148.66.69|577|184.148.0.0/16|CA|arin|2010-04-12|BACOM, CA
185.95.219.53|39540|185.95.219.0/24|CH|ripencc|2015-04-13|COMMUNITYRACK-RMA, CH
188.93.104.86|8409|188.93.104.0/23|RU|ripencc|2009-05-12|IITP-AS, RU
190.2.142.44|49981|190.2.128.0/20|CW|lacnic|2006-04-28|WORLDSTREAM, NL
192.227.113.71|13886|192.227.113.0/24|US|arin|2017-01-30|CLOUD-SOUTH, US
193.111.156.2|24881|193.111.156.0/22|UA|ripencc|2002-04-25|INTERPHONE-AS, UA
193.58.196.212|5578|193.58.196.0/23|SK|ripencc|1997-01-21|AS-BENESTRA Bratislava, Slovak Republic, SK
199.48.92.184|30600|199.48.92.0/22|US|arin|2016-12-19|AS-CMN, US
206.189.16.199|14061|206.189.16.0/20|US|arin|1995-11-15|DIGITALOCEAN-ASN, US
207.180.226.90|51167|207.180.226.0/23|DE|ripencc|1996-08-21|CONTABO, DE
208.167.245.245|20473|208.167.224.0/19|US|arin|2005-12-14|AS-CHOOPA, US
3.127.219.132|16509|3.124.0.0/14|US|arin|2017-12-20|AMAZON-02, US
31.47.202.112|34385|31.47.200.0/21|SE|ripencc|2011-03-22|TRIPNET, SE
34.125.14.221|15169|34.124.0.0/14|US|arin|2018-09-28|GOOGLE, US
34.203.199.245|14618|34.192.0.0/12|US|arin|2016-09-12|AMAZON-AES, US
34.207.101.78|14618|34.192.0.0/12|US|arin|2016-09-12|AMAZON-AES, US
35.228.251.146|15169|35.228.0.0/14|US|arin|2017-09-29|GOOGLE, US
37.143.10.129|203226|37.143.10.0/23|RU|ripencc|2012-03-01|IHCRU Internet-Hosting Ltd, Moscow, Russia, RU
47.196.131.158|5650|47.196.0.0/14|US|arin|2015-08-28|FRONTIER-FRTR, US
68.194.85.201|6128|68.192.0.0/14|US|arin|2003-01-29|CABLE-NET-1, US
69.119.193.9|6128|69.116.0.0/14|US|arin|2004-01-15|CABLE-NET-1, US
71.175.4.253|701|71.175.0.0/16|US|arin|2005-06-01|UUNET, US
77.247.178.130|43350|77.247.176.0/21|NL|ripencc|2007-06-26|NFORCE, NL
77.52.178.235|21497|77.52.128.0/17|UA|ripencc|2007-01-17|UMC-AS, UA
77.85.204.149|8866|77.85.204.0/24|BG|ripencc|2007-03-19|BTC-AS BULGARIA, BG
8.129.83.82|37963|8.129.0.0/17|SG|apnic|1992-12-01|CNNIC-ALIBABA-CN-NET-AP Hangzhou Alibaba Advertising Co.,Ltd., CN
8.210.101.132|45102|8.210.0.0/17|SG|apnic|1992-12-01|CNNIC-ALIBABA-US-NET-AP Alibaba (US) Technology Co., Ltd., CN
8.210.85.146|45102|8.210.0.0/17|SG|apnic|1992-12-01|CNNIC-ALIBABA-US-NET-AP Alibaba (US) Technology Co., Ltd., CN
81.170.143.123|8473|81.170.128.0/17|SE|ripencc|2003-05-12|BAHNHOF http://www.bahnhof.net/, SE
83.221.75.201|16202|83.221.64.0/19|DE|ripencc|2004-04-13|TELECOLUMBUS-AS, DE
84.148.208.25|3320|84.128.0.0/10|DE|ripencc|2004-03-10|DTAG Internet service provider operations, DE
85.212.89.196|12312|85.212.64.0/18|DE|ripencc|2005-02-22|ECOTEL, DE
85.23.154.79|16086|85.23.0.0/16|FI|ripencc|2005-04-06|DNA, FI
86.59.186.21|5483|86.59.128.0/17|HU|ripencc|2012-09-10|MAGYAR-TELEKOM-MAIN-AS Magyar Telekom Nyrt., HU
88.210.15.24|212702|88.210.0.0/20|RU|ripencc|2005-11-24|KMSKOMAS, RU
89.145.253.104|5413|89.145.192.0/18|GB|ripencc|2006-02-02|AS5413, GB
89.186.223.205|39441|89.186.216.0/21|DE|ripencc|2012-09-11|HABNET, DE
91.224.59.14|50833|91.224.59.0/24|CZ|ripencc|2011-02-02|FIBERTEL-AS # upstreams, CZ
92.169.0.79|3215|92.169.0.0/16|FR|ripencc|2007-07-12|France Telecom - Orange, FR
94.19.7.55|35807|94.19.0.0/16|RU|ripencc|2008-07-03|SKYNET-SPB-AS, RU
94.5.239.109|5607|94.0.0.0/12|GB|ripencc|2008-05-27|BSKYB-BROADBAND-AS, GB
95.143.218.179|29124|95.143.208.0/20|RU|ripencc|2009-09-08|ISKRATELECOM-AS SEVEN-SKY, RU
