# bitcoin dns seeds and whois results
IP Address|ASN|BGP Prefix|CC|Registry|Allocated|AS Name
110.163.162.235|9605|110.163.160.0/22|JP|apnic|2009-04-21|DOCOMO NTT DOCOMO, INC., JP
13.244.102.90|16509|13.244.0.0/15|US|arin|2018-07-11|AMAZON-02, US
133.125.50.180|7684|133.125.0.0/16|JP|apnic|1997-03-01|SAKURA-A SAKURA Internet Inc., JP
144.76.138.23|24940|144.76.0.0/16|DE|ripencc|1990-11-16|HETZNER-AS, DE
15.228.41.112|16509|15.228.0.0/15|US|arin|2019-03-26|AMAZON-02, US
15.237.117.105|16509|15.236.0.0/15|US|arin|2018-09-27|AMAZON-02, US
151.106.39.198|34088|151.106.32.0/20|DE|ripencc|1991-05-30|GDY-FRANCE, DE
166.70.94.106|6315|166.70.0.0/16|US|arin|1997-02-19|XMISSION, US
167.86.118.221|51167|167.86.118.0/23|DE|ripencc|1993-05-14|CONTABO, DE
171.101.217.190|17552|171.101.192.0/18|TH|apnic|2011-03-07|TRUEONLINE-AS-AP True Online, TH
178.79.83.93|3212|178.79.64.0/18|SI|ripencc|2010-05-07|TELEMACH Broadband Access & Carrier Services, SI
181.90.96.234|7303|181.90.96.0/20|AR|lacnic|2011-09-19|Telecom Argentina S.A., AR
185.134.213.130|43451|185.134.212.0/22|SK|ripencc|2016-01-18|RADIOLAN-SK-AS, SK
185.153.196.240|49877|185.153.196.0/22|RU|ripencc|2016-05-24|RMINJINERING, RU
185.162.128.143|14576|185.162.128.0/24|NL|ripencc|2016-08-08|HOSTING-SOLUTIONS, US
185.25.48.148|61272|185.25.48.0/22|LT|ripencc|2013-04-29|IST-AS, LT
188.122.2.55|49743|188.122.0.0/20|PL|ripencc|2009-05-14|FINEMEDIA-WROCLAW, PL
192.65.170.15|22581|192.65.170.0/24|VI|arin|2014-11-26|ACE-STX, VI
193.169.254.222|197226|193.169.254.0/24|PL|ripencc|2018-05-08|SPRINT-SDC, PL
194.44.198.53|3255|194.44.198.0/24|UA|ripencc|1994-02-17|UARNET-AS UARNet, UA
195.154.29.215|12876|195.154.0.0/16|FR|ripencc|1996-08-27|Online SAS, FR
195.56.63.5|5588|195.56.0.0/16|HU|ripencc|1996-04-26|GTSCE GTS Central Europe / Antel Germany, CZ
2.85.215.255|6799|2.85.0.0/16|GR|ripencc|2010-05-12|OTENET-GR Athens - Greece, GR
216.249.197.4|13576|216.249.197.0/24|US|arin|2007-05-07|SDNW-13576, US
222.175.110.140|4134|222.174.0.0/15|CN|apnic|2004-03-16|CHINANET-BACKBONE No.31,Jin-rong Street, CN
23.29.117.227|29802|23.29.116.0/23|US|arin|2012-03-16|HVC-AS, US
3.35.168.137|16509|3.34.0.0/15|US|arin|2017-12-20|AMAZON-02, US
35.228.132.48|15169|35.228.0.0/14|US|arin|2017-09-29|GOOGLE, US
37.187.3.112|16276|37.187.0.0/16|FR|ripencc|2012-03-20|OVH, FR
37.61.219.34|20773|37.61.208.0/20|DE|ripencc|2012-01-23|GODADDY, DE
49.146.68.65|9299|49.146.64.0/19|PH|apnic|2010-11-22|IPG-AS-AP Philippine Long Distance Telephone Company, PH
54.189.184.168|16509|54.188.0.0/15|US|arin|2014-10-23|AMAZON-02, US
60.229.212.80|1221|60.224.0.0/13|AU|apnic|2004-07-28|ASN-TELSTRA Telstra Corporation Ltd, AU
64.235.87.134|25769|64.235.64.0/19|US|arin|2002-09-11|GVTEL, US
8.209.108.240|45102|8.209.96.0/19|SG|apnic|1992-12-01|CNNIC-ALIBABA-US-NET-AP Alibaba (US) Technology Co., Ltd., CN
81.171.22.143|60781|81.171.0.0/19|NL|ripencc|2003-05-12|LEASEWEB-NL-AMS-01 Netherlands, NL
85.190.0.5|29686|85.190.0.0/19|DE|ripencc|2004-12-13|PROBENETWORKS-AS, DE
85.208.71.20|42275|85.208.71.0/24|FR|ripencc|2019-02-21|THREEFOURTEEN, FR
85.240.101.138|3243|85.240.0.0/13|PT|ripencc|2004-01-03|MEO-RESIDENCIAL, PT
87.239.201.170|8758|87.239.200.0/21|CH|ripencc|2006-03-07|IWAY, CH
90.162.126.41|12479|90.162.124.0/22|ES|ripencc|2006-09-12|UNI2-AS, ES
91.155.2.97|719|91.152.0.0/13|FI|ripencc|2006-09-06|ELISA-AS Helsinki, Finland, FI
93.103.20.210|34779|93.103.0.0/19|SI|ripencc|2008-03-14|T-2-AS AS set propagated by T-2 d.o.o., SI
94.110.23.215|47377|94.110.0.0/19|BE|ripencc|2008-06-20|ORANGE_BELGIUM_SA New company name is Orange Belgium SA, BE
95.216.226.218|24940|95.216.0.0/16|DE|ripencc|2009-02-24|HETZNER-AS, DE
98.143.78.217|7057|98.143.64.0/20|CA|arin|2009-04-30|MANAGEDNETWORK, CA
