# bitcoin dns seeds and whois results
IP Address|ASN|BGP Prefix|CC|Registry|Allocated|AS Name
102.132.245.16|37680|102.132.240.0/20|ZA|afrinic|2018-07-04|COOL-IDEAS, ZA
103.199.18.37|63734|103.199.16.0/22|VN|apnic|2015-10-22|GREENCLOUDVPS-AS-VN 365 Online technology joint stock company, VN
103.22.144.67|45447|103.22.144.0/22|AU|apnic|2011-06-16|YLESS4U-AS-AP YLess4U Regional Broadband, AU
109.72.83.127|48635|109.72.80.0/20|NL|ripencc|2009-09-10|PCEXTREME-, NL
111.90.146.54|45839|111.90.144.0/21|MY|apnic|2009-06-17|SHINJIRU-MY-AS-AP Shinjiru Technology Sdn Bhd, MY
114.198.60.222|7545|114.198.48.0/20|AU|apnic|2008-06-25|TPG-INTERNET-AP TPG Telecom Limited, AU
116.202.196.182|24940|116.202.0.0/16|DE|ripencc|2011-01-17|HETZNER-AS, DE
116.202.51.11|24940|116.202.0.0/16|DE|ripencc|2011-01-17|HETZNER-AS, DE
13.88.177.3|8075|13.64.0.0/11|US|arin|2015-03-26|MICROSOFT-CORP-MSN-AS-BLOCK, US
138.43.233.57|394147|138.43.233.0/24|US|arin|2019-04-15|MVLINK, US
139.198.190.246|59078|139.198.184.0/21|CN|apnic|2011-03-09|YUNIFY-NET Yunify Technologies Inc., CN
141.136.241.102|13046|141.136.128.0/17|HR|ripencc|2011-06-29|ASN-ISKON HEP, HR
141.193.115.2|19324|141.193.115.0/24|US|arin|2018-06-12|DOSARREST, US
142.93.193.198|14061|142.93.192.0/20|US|arin|2018-07-12|DIGITALOCEAN-ASN, US
143.59.248.153|12083|143.59.0.0/16|US|arin|2018-04-27|WOW-INTERNET, US
15.237.37.136|16509|15.236.0.0/15|US|arin|2018-09-27|AMAZON-02, US
150.131.192.215|3807|150.131.0.0/16|US|arin|1991-09-12|UMTNET-ASN, US
159.100.250.198|61098|159.100.248.0/21|CH|ripencc|1992-03-31|EXOSCALE, CH
162.253.155.79|62838|162.253.155.0/24|US|arin|2014-02-18|REPRISE-HOSTING, US
171.7.50.28|45758|171.7.0.0/16|TH|apnic|2011-03-07|TRIPLETNET-AS-AP Triple T Internet/Triple T Broadband, TH
172.105.51.235|63949|172.105.32.0/19|US|arin|2015-06-19|LINODE-AP Linode, LLC, US
173.31.161.228|30036|173.31.160.0/21|US|arin|2008-05-19|MEDIACOM-ENTERPRISE-BUSINESS, US
176.31.249.106|16276|176.31.0.0/16|FR|ripencc|2011-05-20|OVH, FR
176.9.63.112|24940|176.9.0.0/16|DE|ripencc|2011-05-17|HETZNER-AS, DE
178.236.87.138|42560|178.236.80.0/20|BA|ripencc|2010-06-02|BA-TELEMACH-AS Telemach d.o.o. Sarajevo, BA
18.134.245.224|16509|18.132.0.0/14|US|arin|2019-10-07|AMAZON-02, US
18.191.177.83|16509|18.191.0.0/16|US|arin|2019-10-07|AMAZON-02, US
18.220.157.153|16509|18.220.0.0/14|US|arin|2019-10-07|AMAZON-02, US
182.55.245.25|4657|182.55.245.0/24|SG|apnic|2010-03-01|STARHUB-INTERNET StarHub Ltd, SG
188.121.252.236|29075|188.121.224.0/19|FR|ripencc|2009-05-13|IELO IELO Main Network, FR
190.145.128.22|14080|190.145.128.0/19|CO|lacnic|2007-01-11|Telmex Colombia S.A., CO
190.177.19.120|22927|190.176.0.0/15|AR|lacnic|2008-03-11|Telefonica de Argentina, AR
190.2.130.44|49981|190.2.128.0/20|CW|lacnic|2006-04-28|WORLDSTREAM, NL
192.3.185.210|36352|192.3.176.0/20|US|arin|2013-06-07|AS-COLOCROSSING, US
192.99.16.146|16276|192.99.0.0/16|CA|arin|2013-06-17|OVH, FR
198.1.231.6|30236|198.1.224.0/21|CA|arin|2013-04-17|CRONOMAGIC-1, CA
199.247.249.188|18988|199.247.240.0/20|CA|arin|2017-06-07|CITYWEST-CORP, CA
202.55.87.45|18106|202.55.64.0/19|SG|apnic|2000-08-07|VIEWQWEST-SG-AP Viewqwest Pte Ltd, SG
203.217.139.21|17882|203.217.139.0/24|MN|apnic|2017-09-25|ASN-MCS-AP # AS-MCS-AP CONVERTED TO ASN-MCS-AP FOR RPSL COMPLIANCE The first E-commerce and TriplePlay Service ISP in Mongolia., MN
206.125.169.164|25795|206.125.168.0/21|US|arin|2008-12-08|ARPNET, US
209.188.18.218|20454|209.188.0.0/19|US|arin|2004-05-18|SSASN2, US
213.180.70.138|197308|213.180.64.0/19|SE|ripencc|2000-03-03|CYGATEGROUP, SE
217.195.164.4|29321|217.195.160.0/20|CZ|ripencc|2001-04-24|CENTRONETAS Czech Republic, CZ
3.1.220.100|16509|3.0.0.0/15|US|arin|2017-12-20|AMAZON-02, US
3.126.184.249|16509|3.124.0.0/14|US|arin|2017-12-20|AMAZON-02, US
3.129.216.175|16509|3.128.0.0/15|US|arin|2018-06-25|AMAZON-02, US
3.237.65.243|14618|3.224.0.0/12|US|arin|2018-06-25|AMAZON-AES, US
34.126.115.35|15169|34.124.0.0/14|US|arin|2018-09-28|GOOGLE, US
34.193.35.86|14618|34.192.0.0/12|US|arin|2016-09-12|AMAZON-AES, US
34.64.101.4|139070|34.64.0.0/16|US|arin|2018-09-28|GOOGLE-AS-AP Google Asia Pacific Pte. Ltd., SG
35.175.106.209|14618|35.168.0.0/13|US|arin|2016-08-09|AMAZON-AES, US
35.198.104.34|15169|35.198.0.0/16|US|arin|2017-03-21|GOOGLE, US
35.200.231.26|15169|35.200.0.0/14|US|arin|2017-03-21|GOOGLE, US
35.228.230.233|15169|35.228.0.0/14|US|arin|2017-09-29|GOOGLE, US
35.247.235.180|15169|35.244.0.0/14|US|arin|2017-09-29|GOOGLE, US
37.235.178.123|41268|37.235.128.0/17|RU|ripencc|2012-04-16|LANTA-AS, RU
43.225.157.152|133115|43.225.157.0/24|HK|apnic|2016-07-11|HKKFGL-AS-AP HK Kwaifong Group Limited, HK
45.154.252.98|61072|45.154.252.0/24|GB|ripencc|2019-09-17|EZNET-AS Used by Electrum Technologies GmbH, GB
45.79.68.104|63949|45.79.64.0/19|US|arin|2015-04-29|LINODE-AP Linode, LLC, US
46.105.99.204|16276|46.105.0.0/16|FR|ripencc|2010-11-29|OVH, FR
46.125.66.120|8412|46.124.0.0/15|AT|ripencc|2010-05-31|TMA Magenta Telekom, AT
46.132.188.59|1759|46.132.0.0/16|FI|ripencc|2010-10-20|TSF-IP-CORE Telia Finland Oyj, FI
46.19.137.74|51852|46.19.136.0/21|PA|ripencc|2010-11-15|PLI-AS, PA
47.108.24.191|37963|47.108.0.0/16|CN|apnic|1989-01-06|CNNIC-ALIBABA-CN-NET-AP Hangzhou Alibaba Advertising Co.,Ltd., CN
47.254.89.235|45102|47.254.88.0/21|US|arin|2016-04-15|CNNIC-ALIBABA-US-NET-AP Alibaba (US) Technology Co., Ltd., CN
47.74.62.158|45102|47.74.0.0/18|US|arin|2016-03-17|CNNIC-ALIBABA-US-NET-AP Alibaba (US) Technology Co., Ltd., CN
5.188.56.56|49505|5.188.56.0/22|RU|ripencc|2012-08-09|SELECTEL, RU
50.68.104.92|6327|50.68.104.0/22|CA|arin|2010-10-28|SHAW, CA
52.59.10.197|16509|52.58.0.0/15|US|arin|1991-12-19|AMAZON-02, US
52.79.99.2|16509|52.79.64.0/18|US|arin|1991-12-19|AMAZON-02, US
54.187.117.98|16509|54.186.0.0/15|US|arin|2014-10-23|AMAZON-02, US
54.219.145.18|16509|54.219.128.0/18|US|arin|2014-10-23|AMAZON-02, US
64.225.56.47|14061|64.225.48.0/20|US|arin|2019-08-14|DIGITALOCEAN-ASN, US
65.181.90.133|4760|65.181.64.0/19|HK|apnic|2018-05-25|HKTIMS-AP HKT Limited, HK
65.36.83.142|7459|65.36.0.0/17|US|arin|2008-09-05|GRANDECOM-AS1, US
66.165.225.130|29802|66.165.224.0/21|US|arin|2017-05-17|HVC-AS, US
66.18.172.21|11711|66.18.160.0/20|US|arin|2004-03-03|TULAROSA-COMMUNICATIONS, US
66.27.72.94|20001|66.27.0.0/16|US|arin|2000-10-06|TWC-20001-PACWEST, US
67.213.201.172|6528|67.213.201.0/24|US|arin|2007-09-17|SOUTH-TELEP, US
68.183.130.60|14061|68.183.128.0/20|US|arin|2018-09-18|DIGITALOCEAN-ASN, US
69.12.80.84|8100|69.12.64.0/19|US|arin|2014-02-27|ASN-QUADRANET-GLOBAL, US
70.191.39.150|22773|70.191.32.0/20|US|arin|2004-07-21|ASN-CXA-ALL-CCI-22773-RDC, US
71.227.242.72|7922|71.224.0.0/12|US|arin|2005-04-15|COMCAST-7922, US
72.250.184.57|33501|72.250.184.0/24|US|arin|2008-06-25|MTDIGITAL, US
75.154.127.9|852|75.154.64.0/18|CA|arin|2006-08-01|ASN852, CA
77.37.152.104|42610|77.37.128.0/17|RU|ripencc|2007-03-21|NCNET-AS, RU
77.64.162.212|16202|77.64.128.0/18|DE|ripencc|2006-01-16|TELECOLUMBUS-AS, DE
78.132.7.200|8412|78.132.0.0/17|AT|ripencc|2007-05-30|TMA Magenta Telekom, AT
78.47.61.83|24940|78.46.0.0/15|DE|ripencc|2007-04-16|HETZNER-AS, DE
78.94.31.171|3209|78.94.0.0/16|DE|ripencc|2007-07-20|VODANET International IP-Backbone of Vodafone, DE
79.101.1.25|8400|79.101.0.0/16|RS|ripencc|2007-11-12|TELEKOM-AS, RS
79.98.159.7|44065|79.98.152.0/21|CZ|ripencc|2007-11-06|NETAIR-AS, CZ
80.100.203.151|3265|80.100.0.0/15|NL|ripencc|2001-07-16|XS4ALL-NL Amsterdam, NL
80.254.126.33|21479|80.254.96.0/19|RU|ripencc|2003-10-31|ROSTOV-TELEGRAF-AS, RU
81.2.105.67|20712|81.2.64.0/18|GB|ripencc|2002-04-03|AS20712 Andrews & Arnold Ltd, GB
82.197.213.140|25596|82.197.192.0/19|NL|ripencc|2003-11-11|CAMBRIUM-AS, NL
82.199.102.10|30784|82.199.96.0/19|RU|ripencc|2003-12-01|ISKRATELECOM-AS SEVEN-SKY, RU
83.137.41.10|31394|83.137.40.0/21|AT|ripencc|2004-05-03|NEMOX-NET-AS, AT
83.151.229.140|51918|83.151.228.0/22|GB|ripencc|2004-03-30|CERBERUSNETWORKS-AS, GB
84.17.23.34|8359|84.17.0.0/19|RU|ripencc|2004-07-22|MTS, RU
84.78.55.81|12479|84.78.52.0/22|ES|ripencc|2004-04-23|UNI2-AS, ES
84.85.227.8|1136|84.80.0.0/13|NL|ripencc|2004-03-17|KPN KPN National, NL
89.35.34.96|207375|89.35.34.0/24|NL|ripencc|2005-11-29|FIBO, NL
90.126.42.245|3215|90.126.0.0/16|FR|ripencc|2006-03-02|France Telecom - Orange, FR
90.189.167.93|12389|90.189.128.0/17|RU|ripencc|2006-10-18|ROSTELECOM-AS, RU
91.159.158.36|719|91.152.0.0/13|FI|ripencc|2006-09-06|ELISA-AS Helsinki, Finland, FI
91.193.237.116|42916|91.193.236.0/23|RU|ripencc|2007-05-09|IT-AS, RU
92.200.20.255|20676|92.200.0.0/15|DE|ripencc|2007-10-17|PLUSNET *****************, DE
92.243.9.198|203476|92.243.0.0/20|FR|ripencc|2008-01-10|GANDI-AS-2 Domain name registrar - http://www.gandi.net, FR
92.39.203.142|13122|92.39.200.0/21|GB|ripencc|2008-03-04|MANX-AS MANX-TELECOM Autonomous System, GB
94.130.153.226|24940|94.130.0.0/16|DE|ripencc|2008-06-23|HETZNER-AS, DE
94.158.246.183|39798|94.158.246.0/24|MD|ripencc|2018-08-28|MIVOCLOUD, MD
94.23.21.80|16276|94.23.0.0/16|FR|ripencc|2008-07-15|OVH, FR
95.131.148.78|41275|95.131.144.0/21|RU|ripencc|2009-03-31|LEALTA-AS Moscow, Russia, RU
95.143.218.179|29124|95.143.208.0/20|RU|ripencc|2009-09-08|ISKRATELECOM-AS SEVEN-SKY, RU
95.216.20.26|24940|95.216.0.0/16|DE|ripencc|2009-02-24|HETZNER-AS, DE
95.216.226.218|24940|95.216.0.0/16|DE|ripencc|2009-02-24|HETZNER-AS, DE
98.7.52.103|12271|98.7.0.0/17|US|arin|2007-01-29|TWC-12271-NYC, US
99.36.165.3|7018|99.32.0.0/12|US|arin|2008-02-25|ATT-INTERNET4, US
