# bitcoin dns seeds and whois results
IP Address|ASN|BGP Prefix|CC|Registry|Allocated|AS Name
103.195.7.25|64022|103.195.7.0/24|HK|apnic|2015-09-02|KAMATERAINC-AS-AP Kamatera, Inc., HK
104.198.114.145|15169|104.198.96.0/19|US|arin|2014-08-27|GOOGLE, US
104.4.56.233|7018|104.0.0.0/12|US|arin|2014-01-16|ATT-INTERNET4, US
107.178.98.66|53755|107.178.64.0/18|US|arin|2014-02-10|IOFLOOD, US
116.202.171.210|24940|116.202.0.0/16|DE|ripencc|2011-01-17|HETZNER-AS, DE
125.93.193.39|4134|125.88.0.0/13|CN|apnic|2005-08-16|CHINANET-BACKBONE No.31,Jin-rong Street, CN
13.49.228.150|16509|13.48.0.0/15|US|arin|2020-08-05|AMAZON-02, US
13.49.240.116|16509|13.48.0.0/15|US|arin|2020-08-05|AMAZON-02, US
13.53.40.179|16509|13.53.0.0/16|US|arin|2020-08-05|AMAZON-02, US
130.211.232.148|15169|130.211.0.0/16|US|arin|2014-05-12|GOOGLE, US
131.188.43.61|680|131.188.0.0/16|DE|ripencc|1989-01-03|DFN Verein zur Foerderung eines Deutschen Forschungsnetzes e.V., DE
135.19.9.91|5769|135.19.0.0/18|CA|arin|2012-04-10|VIDEOTRON, CA
136.243.174.119|24940|136.243.0.0/16|DE|ripencc|2004-04-14|HETZNER-AS, DE
138.197.168.65|14061|138.197.160.0/20|US|arin|2016-01-26|DIGITALOCEAN-ASN, US
147.135.6.179|16276|147.135.0.0/17|US|arin|2017-03-22|OVH, FR
158.69.72.5|16276|158.69.0.0/16|CA|arin|2015-06-15|OVH, FR
159.65.99.102|14061|159.65.96.0/20|US|arin|2017-10-24|DIGITALOCEAN-ASN, US
162.214.77.143|46606|162.214.72.0/21|US|arin|2013-05-22|UNIFIEDLAYER-AS-1, US
162.250.189.53|26832|162.250.188.0/22|CA|arin|2013-12-26|RICAWEBSERVICES, CA
163.172.61.154|12876|163.172.0.0/16|GB|ripencc|1992-02-14|Online SAS, FR
173.23.26.135|30036|173.23.26.0/24|US|arin|2008-05-19|MEDIACOM-ENTERPRISE-BUSINESS, US
173.249.48.175|51167|173.249.48.0/23|DE|ripencc|2010-05-26|CONTABO, DE
174.3.4.232|6327|174.3.4.0/22|CA|arin|2008-11-19|SHAW, CA
176.20.60.141|3292|176.20.0.0/14|DK|ripencc|2011-05-19|TDC TDC A/S, DK
178.170.48.17|21409|178.170.0.0/17|FR|ripencc|2010-03-30|IKOULA, FR
178.236.87.138|42560|178.236.80.0/20|BA|ripencc|2010-06-02|BA-TELEMACH-AS Telemach d.o.o. Sarajevo, BA
178.78.69.28|12390|178.78.64.0/18|GB|ripencc|2010-04-22|KINGSTON-UK-AS, GB
179.157.224.109|28573|179.157.192.0/18|BR|lacnic|2013-08-14|CLARO S.A., BR
18.182.46.53|16509|18.182.0.0/16|US|arin|2019-10-07|AMAZON-02, US
180.216.246.81|4804|180.216.128.0/17|AU|apnic|2009-10-05|MPX-AS Microplex PTY LTD, AU
185.143.145.113|202302|185.143.145.0/24|UA|ripencc|2016-03-15|NETH-AS, UA
185.150.162.111|34197|185.150.162.0/24|FR|ripencc|2016-05-04|SHRD-AS, FR
185.180.221.201|49981|185.180.220.0/22|NL|ripencc|2016-12-07|WORLDSTREAM, NL
185.219.111.149|205311|185.219.110.0/23|GB|ripencc|2017-08-31|CAMBRIDGE_FIBRE_NETWORKS, GB
185.48.43.53|200933|185.48.40.0/22|HU|ripencc|2014-02-18|TERANET-HU-AS, HU
186.136.45.239|10318|186.136.32.0/19|AR|lacnic|2009-04-17|Telecom Argentina S.A., AR
188.243.116.199|35807|188.242.0.0/15|RU|ripencc|2009-06-23|SKYNET-SPB-AS, RU
190.17.51.132|10318|190.17.32.0/19|AR|lacnic|2006-12-08|Telecom Argentina S.A., AR
190.219.179.200|18809|190.219.179.0/24|PA|lacnic|2010-06-18|Cable Onda, PA
193.176.242.137|202468|193.176.242.0/23|IR|ripencc|2018-05-09|ABRARVAN-AS AbrArvan CDN and IaaS, IR
193.25.103.173|15600|193.25.102.0/23|CH|ripencc|2004-03-22|FINECOM Quickline AG, CH
194.1.221.244|25133|194.1.220.0/23|UA|ripencc|2010-03-17|MCLAUT-AS, UA
195.114.9.19|48551|195.114.9.0/24|IR|ripencc|2019-11-05|SINDAD, IR
195.123.245.175|204957|195.123.244.0/22|BG|ripencc|1997-04-04|GREENFLOID-AS, BG
198.100.146.191|16276|198.100.144.0/20|CA|arin|2012-07-05|OVH, FR
200.7.252.118|19114|200.7.252.0/23|EC|lacnic|2009-06-23|Otecel S.A., EC
209.177.86.22|21859|209.177.80.0/20|US|arin|2010-04-05|ZNET, US
211.23.128.57|3462|211.23.0.0/16|TW|apnic|2000-06-30|HINET Data Communication Business Group, TW
212.25.15.128|8758|212.25.0.0/19|CH|ripencc|1998-03-25|IWAY, CH
213.145.110.75|9070|213.145.110.0/24|BG|ripencc|2002-08-02|COOOLBOX, BG
216.107.238.165|11524|216.107.224.0/20|US|arin|2000-07-25|SEGNET, US
24.226.68.134|7992|24.226.0.0/17|CA|arin|1997-03-31|COGECOWAVE, CA
3.15.37.142|16509|3.14.0.0/15|US|arin|2017-12-20|AMAZON-02, US
3.34.180.213|16509|3.34.0.0/15|US|arin|2017-12-20|AMAZON-02, US
34.101.77.203|139190|34.101.0.0/16|US|arin|2018-09-28|GOOGLE-AS-AP Google Asia Pacific Pte. Ltd., SG
34.125.112.156|15169|34.124.0.0/14|US|arin|2018-09-28|GOOGLE, US
34.210.115.53|16509|34.208.0.0/12|US|arin|2016-09-12|AMAZON-02, US
34.84.157.174|15169|34.84.0.0/14|US|arin|2018-09-28|GOOGLE, US
34.90.160.87|15169|34.88.0.0/14|US|arin|2018-09-28|GOOGLE, US
34.95.165.1|15169|34.92.0.0/14|US|arin|2018-09-28|GOOGLE, US
34.97.173.26|15169|34.97.128.0/17|US|arin|2018-09-28|GOOGLE, US
35.177.161.171|16509|35.176.0.0/15|US|arin|2016-08-09|AMAZON-02, US
35.199.88.255|15169|35.199.0.0/17|US|arin|2017-03-21|GOOGLE, US
35.236.68.211|15169|35.236.0.0/14|US|arin|2017-09-29|GOOGLE, US
35.247.228.106|15169|35.244.0.0/14|US|arin|2017-09-29|GOOGLE, US
37.17.237.44|13030|37.17.232.0/21|CH|ripencc|2011-12-19|INIT7, CH
37.209.12.181|6830|37.209.0.0/18|DE|ripencc|2012-03-29|LIBERTYGLOBAL Liberty Global (formerly UPC Broadband Holding, aka AORTA), NL
45.116.162.37|55720|45.116.162.0/24|MY|apnic|2015-05-07|GIGABIT-MY Gigabit Hosting Sdn Bhd, MY
45.154.252.98|61072|45.154.252.0/24|GB|ripencc|2019-09-17|EZNET-AS Used by Electrum Technologies GmbH, GB
45.155.156.96|206238|45.155.156.0/23|AE|ripencc|2019-09-18|FREEDOMINTERNET, NL
45.76.165.182|20473|45.76.164.0/22|US|arin|2015-04-24|AS-CHOOPA, US
46.160.195.121|33993|46.160.192.0/21|RU|ripencc|2010-11-15|ELSITE-AS Elsite network, RU
46.32.53.120|39642|46.32.32.0/19|DK|ripencc|2010-08-12|DK-ESS-AS, DK
47.198.209.213|5650|47.196.0.0/14|US|arin|2015-08-28|FRONTIER-FRTR, US
47.96.111.238|37963|47.96.0.0/15|CN|apnic|1989-01-06|CNNIC-ALIBABA-CN-NET-AP Hangzhou Alibaba Advertising Co.,Ltd., CN
5.9.16.76|24940|5.9.0.0/16|DE|ripencc|2012-04-25|HETZNER-AS, DE
5.9.82.50|24940|5.9.0.0/16|DE|ripencc|2012-04-25|HETZNER-AS, DE
50.5.46.195|6181|50.5.0.0/17|US|arin|2010-09-09|FUSE-NET, US
51.154.136.60|15796|51.154.0.0/16|CH|ripencc|1993-09-01|SALT-, CH
51.68.208.252|16276|51.68.0.0/16|FR|ripencc|1993-09-01|OVH, FR
51.83.236.21|16276|51.83.0.0/16|FR|ripencc|1993-09-01|OVH, FR
54.219.97.9|16509|54.219.0.0/17|US|arin|2014-10-23|AMAZON-02, US
54.241.144.222|16509|54.241.128.0/19|US|arin|2012-03-01|AMAZON-02, US
59.110.12.12|37963|59.110.0.0/17|CN|apnic|2006-09-19|CNNIC-ALIBABA-CN-NET-AP Hangzhou Alibaba Advertising Co.,Ltd., CN
62.171.155.146|51167|62.171.154.0/23|DE|ripencc|2000-08-18|CONTABO, DE
63.247.147.166|30221|63.247.144.0/20|US|arin|2007-04-11|T3COM, US
64.46.4.160|40029|64.46.0.0/19|CA|arin|2006-02-10|NOVUS-3, CA
64.79.104.40|53264|64.79.96.0/20|US|arin|2010-03-05|NCHC-603, US
66.165.225.130|29802|66.165.224.0/21|US|arin|2017-05-17|HVC-AS, US
66.208.64.128|10352|66.208.64.0/20|US|arin|2006-04-17|WCTC, US
70.190.107.25|22773|70.190.0.0/16|US|arin|2004-07-21|ASN-CXA-ALL-CCI-22773-RDC, US
71.72.140.136|10796|71.72.0.0/15|US|arin|2005-05-16|TWC-10796-MIDWEST, US
72.69.68.140|701|72.69.0.0/16|US|arin|2005-06-24|UUNET, US
72.94.47.157|701|72.94.0.0/16|US|arin|2005-06-24|UUNET, US
74.207.152.2|14543|74.207.128.0/18|US|arin|2006-10-25|SRT-ASN, US
76.11.17.187|11260|76.11.0.0/19|CA|arin|2007-02-23|EASTLINK-HSI, CA
77.242.84.34|41046|77.242.80.0/20|CZ|ripencc|2007-02-27|NEJTV-AS, CZ
78.108.108.162|8251|78.108.96.0/20|CZ|ripencc|2007-06-18|NFX_ZSPO, CZ
78.26.26.146|202204|78.26.0.0/18|NO|ripencc|2007-08-29|TROLLFJORD, NO
78.27.139.13|15683|78.27.128.0/18|UA|ripencc|2010-06-11|DOMASHKA-AS, UA
80.152.186.194|3320|80.152.0.0/14|DE|ripencc|2001-08-06|DTAG Internet service provider operations, DE
82.124.198.234|3215|82.124.0.0/16|FR|ripencc|2003-10-21|France Telecom - Orange, FR
82.221.131.22|50613|82.221.128.0/19|IS|ripencc|2003-12-11|THORDC-AS, IS
82.96.42.138|39369|82.96.32.0/20|SE|ripencc|2003-11-10|PORT80, SE
84.135.18.4|3320|84.128.0.0/10|DE|ripencc|2004-03-10|DTAG Internet service provider operations, DE
85.119.80.219|8943|85.119.80.0/21|GB|ripencc|2010-03-03|JUMP, GB
85.163.53.75|28725|85.163.0.0/16|CZ|ripencc|2004-10-25|CETIN-AS, CZ
88.202.183.8|13213|88.202.176.0/20|GB|ripencc|2005-11-22|UK2NET-AS, GB
89.252.40.18|31148|89.252.40.0/24|UA|ripencc|2006-08-01|FREENET_LLC, UA
91.121.177.212|16276|91.121.0.0/16|FR|ripencc|2006-09-20|OVH, FR
91.228.155.97|44066|91.228.152.0/22|ES|ripencc|2011-06-01|DE-FIRSTCOLO www.first-colo.net, DE
93.38.127.199|12874|93.38.0.0/15|IT|ripencc|2008-02-25|FASTWEB, IT
93.71.204.162|30722|93.71.192.0/18|IT|ripencc|2008-03-17|VODAFONE-IT-ASN, IT
95.164.65.194|39762|95.164.65.0/24|GI|ripencc|2008-12-31|VAK Poltava, Ukraine, UA
95.216.243.219|24940|95.216.0.0/16|DE|ripencc|2009-02-24|HETZNER-AS, DE
97.99.205.241|11427|97.98.0.0/15|US|arin|2007-04-09|TWC-11427-TEXAS, US
99.73.215.70|7018|99.72.0.0/15|US|arin|2008-02-25|ATT-INTERNET4, US
