# bitcoin dns seeds and whois results
IP Address|ASN|BGP Prefix|CC|Registry|Allocated|AS Name
101.132.39.85|37963|101.132.0.0/16|CN|apnic|2010-12-16|CNNIC-ALIBABA-CN-NET-AP Hangzhou Alibaba Advertising Co.,Ltd., CN
103.235.230.196|4808|103.235.228.0/22|CN|apnic|2014-07-09|CHINA169-BJ China Unicom Beijing Province Network, CN
107.181.189.37|46562|107.181.189.0/24|US|arin|2014-02-14|PERFORMIVE, US
109.229.210.6|24589|109.229.192.0/19|LV|ripencc|2010-06-15|TELENETSIA-AS Telenet AUT-NUM peering specification object, LV
111.90.146.54|45839|111.90.144.0/21|MY|apnic|2009-06-17|SHINJIRU-MY-AS-AP Shinjiru Technology Sdn Bhd, MY
116.202.171.210|24940|116.202.0.0/16|DE|ripencc|2011-01-17|HETZNER-AS, DE
116.203.112.73|24940|116.203.0.0/16|DE|ripencc|2011-01-17|HETZNER-AS, DE
124.170.236.164|7545|124.170.236.0/22|AU|apnic|2007-06-15|TPG-INTERNET-AP TPG Telecom Limited, AU
125.236.215.133|4771|125.236.192.0/19|NZ|apnic|2005-10-20|SPARKNZ Spark New Zealand Trading Ltd., NZ
130.185.109.17|51191|130.185.104.0/21|DE|ripencc|2011-10-24|XIRRA, DE
130.61.30.186|31898|130.61.16.0/20|US|arin|2016-10-31|ORACLE-BMC-31898, US
135.181.182.56|24940|135.181.0.0/16|DE|ripencc|1996-04-30|HETZNER-AS, DE
136.243.10.75|24940|136.243.0.0/16|DE|ripencc|2004-04-14|HETZNER-AS, DE
144.91.80.213|51167|144.91.80.0/23|DE|ripencc|1990-11-20|CONTABO, DE
146.158.130.171|12479|146.158.128.0/22|ES|ripencc|2011-07-12|UNI2-AS, ES
149.28.39.130|20473|149.28.32.0/19|US|arin|2018-05-04|AS-CHOOPA, US
159.100.255.18|61098|159.100.248.0/21|CH|ripencc|1992-03-31|EXOSCALE, CH
159.89.18.157|14061|159.89.16.0/20|US|arin|2017-07-07|DIGITALOCEAN-ASN, US
162.0.208.48|22612|162.0.208.0/24|US|arin|2020-09-03|NAMECHEAP-NET, US
162.214.103.187|46606|162.214.0.0/15|US|arin|2013-05-22|UNIFIEDLAYER-AS-1, US
167.179.145.57|4764|167.179.144.0/22|AU|apnic|1993-09-08|WIDEBAND-AS-AP Aussie Broadband, AU
172.105.197.157|63949|172.105.192.0/19|US|arin|2015-06-19|LINODE-AP Linode, LLC, US
172.117.105.95|20001|172.112.0.0/13|US|arin|2015-06-19|TWC-20001-PACWEST, US
172.81.183.236|174|172.81.176.0/21|CA|arin|2015-05-14|COGENT-174, US
175.43.241.217|4837|175.42.0.0/15|CN|apnic|2009-12-15|CHINA169-BACKBONE CHINA UNICOM China169 Backbone, CN
178.236.87.138|42560|178.236.80.0/20|BA|ripencc|2010-06-02|BA-TELEMACH-AS Telemach d.o.o. Sarajevo, BA
178.63.18.3|24940|178.63.0.0/16|DE|ripencc|2010-03-02|HETZNER-AS, DE
178.84.195.232|6830|178.84.0.0/16|NL|ripencc|2009-12-19|LIBERTYGLOBAL Liberty Global (formerly UPC Broadband Holding, aka AORTA), NL
18.183.19.86|16509|18.183.0.0/16|US|arin|2018-06-29|AMAZON-02, US
184.154.94.219|32475|184.154.0.0/16|US|arin|2010-06-21|SINGLEHOP-LLC, US
184.162.188.32|5769|184.162.128.0/18|CA|arin|2010-06-21|VIDEOTRON, CA
185.107.83.55|43350|185.107.80.0/22|NL|ripencc|2015-07-03|NFORCE, NL
185.128.245.68|51184|185.128.244.0/22|AT|ripencc|2015-11-27|FONIRA, AT
185.14.28.54|21100|185.14.28.0/22|UA|ripencc|2012-12-21|ITLDC-NL, UA
185.161.145.71|198930|185.161.144.0/22|DE|ripencc|2016-08-01|DE-VSM-ASN Peering, DE
185.181.176.246|206591|185.181.176.0/24|CZ|ripencc|2016-12-12|ALZACZ-AS, CZ
185.193.107.105|48146|185.193.104.0/22|ES|ripencc|2017-03-07|TRIPLEA, ES
185.67.101.35|57391|185.67.101.0/24|IR|ripencc|2014-08-14|LASER-IDC, IR
186.67.164.77|6471|186.67.128.0/17|CL|lacnic|2011-05-13|ENTEL CHILE S.A., CL
188.141.79.43|6830|188.141.64.0/18|IE|ripencc|2009-06-03|LIBERTYGLOBAL Liberty Global (formerly UPC Broadband Holding, aka AORTA), NL
188.27.168.194|8708|188.27.0.0/16|RO|ripencc|2009-02-11|RCS-RDS 73-75 Dr. Staicovici, RO
192.139.35.143|54841|192.139.35.0/24|CA|arin|1992-02-26|O-NET, CA
194.135.135.69|25227|194.135.135.0/24|RU|ripencc|1995-02-06|ASN-AVANTEL-MSK Located in Moscow, Russia., RU
194.219.62.23|1241|194.219.0.0/17|GR|ripencc|1995-12-20|FORTHNET-GR Forthnet, EU
194.26.29.152|206728|194.26.29.0/24|RU|ripencc|2019-11-20|MEDIALAND-AS, RU
2.39.173.126|30722|2.39.128.0/17|IT|ripencc|2010-04-29|VODAFONE-IT-ASN, IT
204.14.245.176|18918|204.14.244.0/22|US|arin|2008-12-17|UNOCOMM, US
209.97.137.55|14061|209.97.128.0/20|US|arin|1997-07-03|DIGITALOCEAN-ASN, US
212.19.14.26|8749|212.19.0.0/19|RU|ripencc|1998-03-23|REDCOM-AS Redcom, Khabarovsk, Russia, RU
217.12.201.49|21100|217.12.200.0/23|UA|ripencc|2000-08-25|ITLDC-NL, UA
217.147.165.79|21379|217.147.165.0/24|UA|ripencc|2001-03-02|ISV-AS, UA
217.23.3.251|49981|217.23.0.0/20|NL|ripencc|2009-02-04|WORLDSTREAM, NL
24.215.81.255|11260|24.215.64.0/18|CA|arin|2003-09-03|EASTLINK-HSI, CA
3.0.167.250|16509|3.0.0.0/15|US|arin|2017-12-20|AMAZON-02, US
3.120.99.93|16509|3.120.0.0/14|US|arin|2017-12-20|AMAZON-02, US
3.83.239.210|14618|3.80.0.0/12|US|arin|2017-12-20|AMAZON-AES, US
31.179.204.142|201046|31.179.204.0/24|PL|ripencc|2011-03-22|TRAFCOM_NET, PL
34.101.72.24|139190|34.101.0.0/16|US|arin|2018-09-28|GOOGLE-AS-AP Google Asia Pacific Pte. Ltd., SG
34.236.113.58|14618|34.224.0.0/12|US|arin|2016-09-12|AMAZON-AES, US
34.94.255.160|15169|34.92.0.0/14|US|arin|2018-09-28|GOOGLE, US
35.199.107.158|15169|35.199.0.0/17|US|arin|2017-03-21|GOOGLE, US
35.200.237.93|15169|35.200.0.0/14|US|arin|2017-03-21|GOOGLE, US
35.228.210.193|15169|35.228.0.0/14|US|arin|2017-09-29|GOOGLE, US
37.187.152.220|16276|37.187.0.0/16|FR|ripencc|2012-03-20|OVH, FR
37.97.249.17|20857|37.97.128.0/17|NL|ripencc|2012-02-02|TRANSIP-AS Amsterdam, the Netherlands, NL
39.101.206.20|37963|39.100.0.0/14|CN|apnic|2011-04-05|CNNIC-ALIBABA-CN-NET-AP Hangzhou Alibaba Advertising Co.,Ltd., CN
40.71.41.208|8075|40.68.0.0/14|US|arin|2015-02-23|MICROSOFT-CORP-MSN-AS-BLOCK, US
42.98.245.118|4760|42.98.240.0/20|HK|apnic|2011-02-18|HKTIMS-AP HKT Limited, HK
45.116.162.37|55720|45.116.162.0/24|MY|apnic|2015-05-07|GIGABIT-MY Gigabit Hosting Sdn Bhd, MY
45.80.148.33|204641|45.80.148.0/24|RO|ripencc|2019-05-15|ECOMPUTE, RO
45.84.42.80|57112|45.84.40.0/22|NL|ripencc|2019-05-31|ASN-F2X, NL
46.254.217.169|48149|46.254.216.0/21|RU|ripencc|2010-12-22|ITKM-AS, RU
47.56.231.218|45102|47.56.0.0/16|US|arin|2016-03-17|CNNIC-ALIBABA-US-NET-AP Alibaba (US) Technology Co., Ltd., CN
47.74.228.168|45102|47.74.192.0/18|US|arin|2016-03-17|CNNIC-ALIBABA-US-NET-AP Alibaba (US) Technology Co., Ltd., CN
5.133.65.82|15440|5.133.65.0/24|LT|ripencc|2018-11-09|BALTNETA Customers AS, LT
5.196.73.52|16276|5.196.0.0/16|FR|ripencc|2012-08-23|OVH, FR
5.39.70.222|16276|5.39.0.0/17|FR|ripencc|2012-05-15|OVH, FR
52.221.182.253|16509|52.220.0.0/15|US|arin|2015-09-02|AMAZON-02, US
54.241.144.222|16509|54.241.128.0/19|US|arin|2011-12-09|AMAZON-02, US
62.228.89.138|6866|62.228.64.0/19|CY|ripencc|2009-07-07|CYTA-NETWORK Internet Services, CY
62.38.75.208|3329|62.38.0.0/16|GR|ripencc|2001-05-30|HOL-GR Athens, Greece, GR
62.75.216.136|8972|62.75.216.0/24|DE|ripencc|2001-07-27|GD-EMEA-DC-SXB1, DE
63.80.184.72|16578|63.80.184.0/24|US|arin|1999-01-22|DATANOC, US
67.227.167.130|32244|67.227.128.0/17|US|arin|2008-01-23|LIQUIDWEB, US
68.183.126.132|14061|68.183.112.0/20|US|arin|2018-09-18|DIGITALOCEAN-ASN, US
69.209.23.72|7018|69.208.0.0/15|US|arin|2004-02-10|ATT-INTERNET4, US
69.216.103.57|7018|69.216.0.0/13|US|arin|2004-02-10|ATT-INTERNET4, US
69.249.137.104|7922|69.240.0.0/12|US|arin|2004-02-11|COMCAST-7922, US
70.134.63.129|7018|70.134.0.0/15|US|arin|2005-04-15|ATT-INTERNET4, US
70.226.119.80|7018|70.226.0.0/15|US|arin|2005-03-22|ATT-INTERNET4, US
73.185.1.77|7922|73.0.0.0/8|US|arin|2005-04-19|COMCAST-7922, US
76.11.17.187|11260|76.11.0.0/19|CA|arin|2007-02-23|EASTLINK-HSI, CA
77.95.141.193|28716|77.95.136.0/21|IT|ripencc|2007-06-07|RETELIT-AS Internet Service Provider, IT
78.108.102.8|8251|78.108.96.0/20|CZ|ripencc|2007-06-18|NFX_ZSPO, CZ
78.159.99.85|28753|78.159.96.0/19|DE|ripencc|2007-09-18|LEASEWEB-DE-FRA-10, DE
78.220.111.71|12322|78.192.0.0/11|FR|ripencc|2007-03-15|PROXAD, FR
8.129.115.68|37963|8.129.0.0/17|SG|apnic|1992-12-01|CNNIC-ALIBABA-CN-NET-AP Hangzhou Alibaba Advertising Co.,Ltd., CN
8.210.74.141|45102|8.210.0.0/17|SG|apnic|1992-12-01|CNNIC-ALIBABA-US-NET-AP Alibaba (US) Technology Co., Ltd., CN
82.10.188.54|5089|82.8.0.0/14|GB|ripencc|2003-02-28|NTL, GB
82.64.206.205|12322|82.64.0.0/14|FR|ripencc|2003-04-03|PROXAD, FR
82.95.192.91|3265|82.92.0.0/14|NL|ripencc|2003-11-25|XS4ALL-NL Amsterdam, NL
83.250.61.217|39651|83.248.0.0/13|SE|ripencc|2004-03-04|COMHEM-SWEDEN, SE
84.254.90.125|8758|84.254.80.0/20|CH|ripencc|2004-10-06|IWAY, CH
85.184.138.108|204274|85.184.128.0/19|DK|ripencc|2004-11-19|DK-AURA-AS, DK
86.76.7.132|15557|86.64.0.0/12|FR|ripencc|2005-03-02|LDCOMNET, FR
87.79.94.221|8422|87.78.0.0/15|DE|ripencc|2005-05-31|NETCOLOGNE, DE
88.150.40.22|43341|88.150.0.0/17|DE|ripencc|2006-01-23|MDLINK MDlink online service center GmbH, DE
89.236.101.52|30798|89.236.64.0/18|FI|ripencc|2006-06-14|TNNET-AS TNNet Oy Main network, FI
89.28.117.31|31252|89.28.0.0/17|MD|ripencc|2006-06-29|STARNET-AS, MD
90.217.58.1|5607|90.192.0.0/11|GB|ripencc|2007-06-14|BSKYB-BROADBAND-AS, GB
91.98.97.90|60976|91.98.97.0/24|IR|ripencc|2006-09-11|POL, IR
92.220.163.15|29695|92.220.0.0/15|NO|ripencc|2007-10-17|ALTIBOX_AS Norway, NO
94.208.33.68|33915|94.208.0.0/14|NL|ripencc|2008-07-22|TNF-AS, NL
95.170.88.58|20857|95.170.64.0/19|NL|ripencc|2009-02-03|TRANSIP-AS Amsterdam, the Netherlands, NL
95.211.207.81|60781|95.211.0.0/16|NL|ripencc|2009-02-05|LEASEWEB-NL-AMS-01 Netherlands, NL
97.90.115.171|20115|97.90.112.0/20|US|arin|2007-03-21|CHARTER-20115, US
99.79.193.221|16509|99.79.0.0/16|US|arin|2018-01-10|AMAZON-02, US
