# bitcoin dns seeds and whois results
IP Address|ASN|BGP Prefix|CC|Registry|Allocated|AS Name
104.192.205.249|21743|104.192.204.0/22|US|arin|2014-09-10|ANL-36, US
104.254.110.227|15011|104.254.104.0/21|US|arin|2015-01-02|JAGUAR-1, US
106.54.171.167|45090|106.54.128.0/18|CN|apnic|2011-04-06|CNNIC-TENCENT-NET-AP Shenzhen Tencent Computer Systems Company Limited, CN
108.247.173.170|7018|108.192.0.0/10|US|arin|2011-01-12|ATT-INTERNET4, US
13.236.100.67|16509|13.236.0.0/14|US|arin|2019-10-01|AMAZON-02, US
139.59.80.147|14061|139.59.80.0/20|SG|apnic|1990-06-27|DIGITALOCEAN-ASN, US
141.136.241.102|13046|141.136.128.0/17|HR|ripencc|2011-06-29|ASN-ISKON HEP, HR
142.162.94.149|855|142.162.92.0/22|CA|arin|1992-08-26|CANET-ASN-4, CA
148.66.58.138|45753|148.66.58.0/24|HK|apnic|1991-04-11|NETSEC-HK NETSEC, HK
162.0.227.56|22612|162.0.227.0/24|US|arin|2020-04-03|NAMECHEAP-NET, US
167.99.213.209|14061|167.99.208.0/20|US|arin|2017-11-10|DIGITALOCEAN-ASN, US
168.119.153.12|24940|168.119.0.0/16|DE|ripencc|1994-04-05|HETZNER-AS, DE
172.105.178.137|63949|172.105.160.0/19|US|arin|2015-06-19|LINODE-AP Linode, LLC, US
172.114.72.186|20001|172.112.0.0/13|US|arin|2015-06-19|TWC-20001-PACWEST, US
176.223.139.243|62282|176.223.128.0/20|LT|ripencc|2011-11-29|RACKRAY UAB Rakrejus, LT
176.9.32.126|24940|176.9.0.0/16|DE|ripencc|2011-05-17|HETZNER-AS, DE
178.236.87.138|42560|178.236.80.0/20|BA|ripencc|2010-06-02|BA-TELEMACH-AS Telemach d.o.o. Sarajevo, BA
18.132.201.15|16509|18.132.0.0/14|US|arin|2019-10-07|AMAZON-02, US
18.141.210.87|16509|18.140.0.0/15|US|arin|2019-10-07|AMAZON-02, US
18.141.58.3|16509|18.140.0.0/15|US|arin|2019-10-07|AMAZON-02, US
184.154.94.219|32475|184.154.0.0/16|US|arin|2010-06-21|SINGLEHOP-LLC, US
185.137.234.101|49505|185.137.234.0/24|RU|ripencc|2016-02-08|SELECTEL, RU
185.238.128.119|206238|185.238.128.0/22|NL|ripencc|2017-12-22|FREEDOMINTERNET, NL
187.189.153.165|22884|187.189.153.0/24|MX|lacnic|2011-12-08|TOTAL PLAY TELECOMUNICACIONES SA DE CV, MX
187.211.52.92|8151|187.211.48.0/21|MX|lacnic|2011-06-06|Uninet S.A. de C.V., MX
188.166.246.32|14061|188.166.240.0/20|US|ripencc|2009-06-05|DIGITALOCEAN-ASN, US
188.243.116.199|35807|188.242.0.0/15|RU|ripencc|2009-06-23|SKYNET-SPB-AS, RU
194.14.246.49|50066|194.14.246.0/24|SE|ripencc|1993-12-09|SRSTUBES-AS, SE
198.54.123.68|22612|198.54.123.0/24|US|arin|2015-11-13|NAMECHEAP-NET, US
199.247.19.74|20473|199.247.16.0/21|US|ripencc|1996-04-09|AS-CHOOPA, US
206.189.54.247|14061|206.189.48.0/20|US|arin|1995-11-15|DIGITALOCEAN-ASN, US
207.244.157.66|23033|207.244.157.0/24|US|arin|2005-07-01|WOW, US
23.226.90.172|62727|23.226.80.0/20|US|arin|2013-09-12|PLEXICOMM, US
27.32.149.109|7545|27.32.149.0/24|AU|apnic|2010-03-18|TPG-INTERNET-AP TPG Telecom Limited, AU
31.170.86.245|8887|31.170.64.0/19|SK|ripencc|2011-03-30|TESATEL-AS, SK
34.64.211.116|139070|34.64.0.0/16|US|arin|2018-09-28|GOOGLE-AS-AP Google Asia Pacific Pte. Ltd., SG
34.84.70.7|15169|34.84.0.0/14|US|arin|2018-09-28|GOOGLE, US
34.89.78.76|15169|34.88.0.0/14|US|arin|2018-09-28|GOOGLE, US
34.92.126.92|15169|34.92.0.0/14|US|arin|2018-09-28|GOOGLE, US
34.97.173.26|15169|34.97.128.0/17|US|arin|2018-09-28|GOOGLE, US
35.236.12.131|15169|35.236.0.0/14|US|arin|2017-09-29|GOOGLE, US
37.61.219.34|20773|37.61.208.0/20|DE|ripencc|2012-01-23|GODADDY, DE
46.132.185.169|1759|46.132.0.0/16|FI|ripencc|2010-10-20|TSF-IP-CORE Telia Finland Oyj, FI
47.242.223.170|45102|47.242.0.0/16|US|arin|2016-04-15|CNNIC-ALIBABA-US-NET-AP Alibaba (US) Technology Co., Ltd., CN
47.91.147.37|45102|47.91.128.0/18|US|arin|2015-05-18|CNNIC-ALIBABA-US-NET-AP Alibaba (US) Technology Co., Ltd., CN
51.77.53.133|16276|51.77.0.0/16|FR|ripencc|1993-09-01|OVH, FR
52.212.2.112|16509|52.208.0.0/13|US|arin|2015-09-02|AMAZON-02, US
54.36.172.26|16276|54.36.0.0/16|FR|ripencc|1992-03-17|OVH, FR
62.133.194.156|28788|62.133.192.0/18|NL|ripencc|2003-02-21|UNILOGICNET-AS, NL
62.210.129.123|12876|62.210.0.0/16|FR|ripencc|2000-10-26|Online SAS, FR
66.49.204.11|33139|66.49.192.0/20|CA|arin|2004-02-10|CANACA-210, CA
68.68.43.129|46253|68.68.32.0/20|US|arin|2009-06-24|SUGARSYNC, US
69.59.18.22|397444|69.59.18.0/24|US|arin|2019-04-18|AS-OKI, US
69.64.225.2|13409|69.64.224.0/20|US|arin|2003-08-04|PDX, US
73.68.171.63|7922|73.0.0.0/8|US|arin|2005-04-19|COMCAST-7922, US
74.207.152.2|14543|74.207.128.0/18|US|arin|2006-10-25|SRT-ASN, US
77.225.162.222|12430|77.224.0.0/13|ES|ripencc|2006-12-06|VODAFONE_ES, ES
78.20.192.90|6848|78.20.0.0/14|BE|ripencc|2007-05-14|TELENET-AS, BE
78.35.120.245|8422|78.34.0.0/15|DE|ripencc|2007-03-08|NETCOLOGNE, DE
8.210.18.56|45102|8.210.0.0/17|SG|apnic|1992-12-01|CNNIC-ALIBABA-US-NET-AP Alibaba (US) Technology Co., Ltd., CN
81.10.227.233|12605|81.10.128.0/17|AT|ripencc|2002-04-16|LIWEST-AT Linz, Austria, AT
82.202.68.231|25512|82.202.64.0/18|CZ|ripencc|2003-09-23|CDT-AS The Czech Republic, CZ
82.28.153.95|5089|82.28.0.0/14|GB|ripencc|2003-02-28|NTL, GB
83.128.49.155|15435|83.128.0.0/16|NL|ripencc|2004-01-05|KABELFOON DELTA Fiber Nederland, NL
85.220.190.246|25394|85.220.128.0/17|DE|ripencc|2005-02-07|MK-NETZDIENSTE-AS, DE
85.241.106.203|3243|85.240.0.0/13|PT|ripencc|2004-01-03|MEO-RESIDENCIAL, PT
87.244.111.91|8681|87.244.64.0/18|GB|ripencc|2005-08-02|JT, GB
92.185.96.97|12479|92.185.96.0/22|FR|ripencc|2007-07-12|UNI2-AS, ES
94.130.128.29|24940|94.130.0.0/16|DE|ripencc|2008-06-23|HETZNER-AS, DE
