# bitcoin dns seeds and whois results
IP Address|ASN|BGP Prefix|CC|Registry|Allocated|AS Name
100.15.81.199|701|100.15.0.0/16|US|arin|2010-12-28|UUNET, US
103.22.144.67|45447|103.22.144.0/22|AU|apnic|2011-06-16|YLESS4U-AS-AP YLess4U Regional Broadband, AU
104.198.114.145|15169|104.198.96.0/19|US|arin|2014-08-27|GOOGLE, US
109.110.81.90|35816|109.110.64.0/19|RU|ripencc|2009-11-19|SEVSTAR Sevastopol, Russia, RU
109.186.228.62|1680|109.186.0.0/16|IL|ripencc|2009-10-08|NV-ASN CELLCOM ltd., IL
120.155.25.147|1221|120.152.0.0/14|AU|apnic|2008-04-09|ASN-TELSTRA Telstra Corporation Ltd, AU
121.204.253.58|133776|121.204.252.0/23|CN|apnic|2006-08-31|CHINATELECOM-FUJIAN-QUANZHOU-IDC1 Quanzhou, CN
128.199.98.15|14061|128.199.64.0/18|GB|ripencc|1999-04-12|DIGITALOCEAN-ASN, US
13.212.182.30|16509|13.212.0.0/15|US|arin|2019-10-01|AMAZON-02, US
13.212.4.107|16509|13.212.0.0/15|US|arin|2019-10-01|AMAZON-02, US
13.244.63.164|16509|13.244.0.0/15|US|arin|2018-07-11|AMAZON-02, US
137.59.187.126|18106|137.59.184.0/22|HK|apnic|2016-02-08|VIEWQWEST-SG-AP Viewqwest Pte Ltd, SG
139.153.255.107|786|139.153.0.0/16|GB|ripencc|1992-10-05|JANET Jisc Services Limited, GB
142.93.98.144|14061|142.93.96.0/20|US|arin|2018-07-12|DIGITALOCEAN-ASN, US
143.110.175.248|14061|143.110.160.0/20|US|arin|2020-01-17|DIGITALOCEAN-ASN, US
143.159.142.54|6871|143.159.0.0/16|US|arin|1990-09-26|PLUSNET UK Internet Service Provider, GB
143.89.60.134|3363|143.89.0.0/16|HK|apnic|1990-09-07|HKUST-AS-HK Hong Kong University of Science and Technology, HK
148.251.186.234|24940|148.251.0.0/16|DE|ripencc|1993-09-01|HETZNER-AS, DE
150.131.192.215|3807|150.131.0.0/16|US|arin|1991-09-12|UMTNET-ASN, US
157.97.7.24|43571|157.97.0.0/19|IS|ripencc|1995-07-13|NOVAIS-AS, IS
164.68.97.15|51167|164.68.96.0/23|DE|ripencc|1992-12-17|CONTABO, DE
167.71.159.219|14061|167.71.144.0/20|US|arin|2019-04-24|DIGITALOCEAN-ASN, US
168.119.49.105|24940|168.119.0.0/16|DE|ripencc|1994-04-05|HETZNER-AS, DE
173.231.200.117|22611|173.231.192.0/20|US|arin|2018-10-23|INMOTION, US
173.95.58.155|11426|173.92.0.0/14|US|arin|2008-09-05|TWC-11426-CAROLINAS, US
176.144.65.173|5410|176.128.0.0/10|FR|ripencc|2011-07-06|BOUYGTEL-ISP, FR
178.128.120.178|14061|178.128.112.0/20|US|ripencc|2010-03-03|DIGITALOCEAN-ASN, US
178.128.206.59|14061|178.128.192.0/20|US|ripencc|2010-03-03|DIGITALOCEAN-ASN, US
178.19.106.26|59491|178.19.104.0/21|PL|ripencc|2010-05-17|LIVENET-, PL
178.236.87.138|42560|178.236.80.0/20|BA|ripencc|2010-06-02|BA-TELEMACH-AS Telemach d.o.o. Sarajevo, BA
18.198.16.76|16509|18.198.0.0/15|US|arin|2018-06-29|AMAZON-02, US
18.228.158.38|16509|18.228.0.0/16|US|arin|2018-06-29|AMAZON-02, US
182.55.245.25|4657|182.55.245.0/24|SG|apnic|2010-03-01|STARHUB-INTERNET StarHub Ltd, SG
184.105.70.100|6939|184.104.0.0/15|US|arin|2010-05-10|HURRICANE, US
185.107.15.161|204151|185.107.12.0/22|DK|ripencc|2015-07-01|KVIKNET-, DK
185.174.100.242|8100|185.174.100.0/22|UA|ripencc|2016-10-24|ASN-QUADRANET-GLOBAL, US
185.186.143.123|204490|185.186.140.0/22|RU|ripencc|2017-01-19|ASKONTEL, RU
185.80.219.132|59702|185.80.216.0/22|SE|ripencc|2014-12-10|JUNET, SE
186.33.167.11|27947|186.33.160.0/19|EC|lacnic|2011-12-07|Telconet S.A, EC
188.68.217.63|49505|188.68.216.0/23|RU|ripencc|2009-08-25|SELECTEL, RU
189.39.6.82|16735|189.39.0.0/18|BR|lacnic|2007-05-18|ALGAR TELECOM S/A, BR
190.72.52.193|8048|190.72.32.0/19|VE|lacnic|2006-11-10|CANTV Servicios, Venezuela, VE
193.29.13.84|42397|193.29.13.0/24|RO|ripencc|2018-04-25|***************************************, RO
194.79.60.106|35804|194.79.60.0/22|UA|ripencc|2005-10-25|AL, UA
195.123.245.175|204957|195.123.244.0/22|BG|ripencc|1997-04-04|GREENFLOID-AS, BG
195.204.173.39|2116|195.204.0.0/16|NO|ripencc|1996-07-10|ASN-CATCHCOM, NO
195.220.95.131|2200|195.220.0.0/16|FR|ripencc|1996-07-18|FR-RENATER Reseau National de telecommunications pour la Technologie, FR
198.1.231.6|30236|198.1.224.0/21|CA|arin|2013-04-17|CRONOMAGIC-1, CA
198.48.225.88|5645|198.48.128.0/17|CA|arin|2013-03-04|TEKSAVVY, CA
2.30.116.253|12576|2.30.0.0/16|GB|ripencc|2010-09-21|EE Ltd, GB
200.7.252.118|19114|200.7.252.0/23|EC|lacnic|2009-06-23|Otecel S.A., EC
204.15.11.35|13331|204.15.8.0/21|US|arin|2015-03-02|METAPEER-INC, US
208.54.231.218|19045|208.54.224.0/21|US|arin|2019-01-11|DIRECTCOM, US
209.51.188.190|22989|209.51.188.0/24|US|arin|1997-05-05|FREEASINFREEDOM, US
212.77.43.160|15955|212.77.32.0/19|LI|ripencc|1999-06-18|SUPRANET, LI
213.1.216.201|2856|213.1.0.0/16|GB|ripencc|1999-11-11|BT-UK-AS BTnet UK Regional network, GB
217.11.249.81|15685|217.11.249.0/24|CZ|ripencc|2001-06-22|CASABLANCA-AS Internet & Collocation Provider, CZ
24.192.245.64|12083|24.192.240.0/21|US|arin|2005-06-30|WOW-INTERNET, US
24.237.101.250|8047|24.237.0.0/16|US|arin|1997-10-14|GCI, US
3.101.125.70|16509|3.101.0.0/16|US|arin|2017-12-20|AMAZON-02, US
3.135.201.40|16509|3.132.0.0/14|US|arin|2018-06-25|AMAZON-02, US
3.17.174.43|16509|3.16.0.0/14|US|arin|2017-12-20|AMAZON-02, US
3.227.11.183|14618|3.224.0.0/12|US|arin|2018-06-25|AMAZON-AES, US
3.82.243.73|14618|3.80.0.0/12|US|arin|2017-12-20|AMAZON-AES, US
3.96.218.124|16509|3.96.0.0/15|US|arin|2017-12-20|AMAZON-02, US
31.179.204.142|201046|31.179.204.0/24|PL|ripencc|2011-03-22|TRAFCOM_NET, PL
34.105.19.97|15169|34.104.0.0/14|US|arin|2018-09-28|GOOGLE, US
34.84.70.7|15169|34.84.0.0/14|US|arin|2018-09-28|GOOGLE, US
34.86.248.96|15169|34.84.0.0/14|US|arin|2018-09-28|GOOGLE, US
35.178.202.209|16509|35.178.0.0/15|US|arin|2016-08-09|AMAZON-02, US
35.204.137.151|15169|35.204.0.0/15|US|arin|2017-03-21|GOOGLE, US
35.209.51.212|15169|35.208.0.0/15|US|arin|2017-09-29|GOOGLE, US
35.237.32.83|15169|35.236.0.0/14|US|arin|2017-09-29|GOOGLE, US
35.244.103.242|15169|35.244.0.0/14|US|arin|2017-09-29|GOOGLE, US
37.187.117.39|16276|37.187.0.0/16|FR|ripencc|2012-03-20|OVH, FR
45.89.16.45|35048|45.89.16.0/22|RU|ripencc|2019-06-20|BITERIKA-AS, RU
45.92.156.107|58073|45.92.156.0/24|US|ripencc|2019-07-01|YISP-AS, NL
46.101.112.251|14061|46.101.96.0/19|US|ripencc|2010-06-24|DIGITALOCEAN-ASN, US
46.188.10.187|8334|46.188.0.0/17|RU|ripencc|2010-11-24|CO-2COM-AS Moscow, RU
46.226.18.135|52176|46.226.16.0/21|CZ|ripencc|2011-01-19|TTC-, CZ
47.184.48.254|5650|47.184.0.0/14|US|arin|2015-08-28|FRONTIER-FRTR, US
49.12.85.232|24940|49.12.0.0/16|DE|ripencc|2010-10-21|HETZNER-AS, DE
5.79.123.3|60781|5.79.64.0/18|NL|ripencc|2012-06-14|LEASEWEB-NL-AMS-01 Netherlands, NL
5.8.71.45|199524|5.8.71.0/24|LU|ripencc|2012-04-25|GCORE, LU
5.9.138.24|24940|5.9.0.0/16|DE|ripencc|2012-04-25|HETZNER-AS, DE
52.11.1.128|16509|52.10.0.0/15|US|arin|1991-12-19|AMAZON-02, US
52.163.63.49|8075|52.160.0.0/11|US|arin|2015-11-24|MICROSOFT-CORP-MSN-AS-BLOCK, US
54.154.68.152|16509|54.154.0.0/16|US|arin|2014-10-23|AMAZON-02, US
59.167.155.59|4739|59.167.0.0/16|AU|apnic|2005-09-14|INTERNODE-AS Internode Pty Ltd, AU
62.194.186.174|6830|62.194.0.0/16|NL|ripencc|2000-10-10|LIBERTYGLOBAL Liberty Global (formerly UPC Broadband Holding, aka AORTA), NL
62.214.253.61|8881|62.214.240.0/20|DE|ripencc|2000-10-25|VERSATEL, DE
62.254.157.105|5089|62.254.128.0/18|GB|ripencc|1999-10-04|NTL, GB
64.46.4.160|40029|64.46.0.0/19|CA|arin|2006-02-10|NOVUS-3, CA
64.98.64.248|32133|64.98.64.0/20|CA|arin|2000-05-18|AS-TING-BACKBONE, US
66.160.128.215|6939|66.160.128.0/18|US|arin|2003-10-09|HURRICANE, US
67.110.215.195|62511|67.110.208.0/20|US|arin|2001-08-10|DCI, US
69.119.193.9|6128|69.116.0.0/14|US|arin|2004-01-15|CABLE-NET-1, US
70.59.123.25|209|70.59.112.0/20|US|arin|2004-06-18|CENTURYLINK-US-LEGACY-QWEST, US
78.159.99.85|28753|78.159.96.0/19|DE|ripencc|2007-09-18|LEASEWEB-DE-FRA-10, DE
78.27.139.13|15683|78.27.128.0/18|UA|ripencc|2010-06-11|DOMASHKA-AS, UA
78.46.151.58|24940|78.46.0.0/15|DE|ripencc|2007-04-16|HETZNER-AS, DE
78.84.115.146|12578|78.84.0.0/16|LV|ripencc|2007-04-18|APOLLO-AS Latvia, LV
79.133.228.55|21412|79.133.224.0/19|LT|ripencc|2007-10-16|CGATES-AS, LT
82.137.41.13|8708|82.137.32.0/19|RO|ripencc|2003-07-04|RCS-RDS 73-75 Dr. Staicovici, RO
82.199.102.10|30784|82.199.96.0/19|RU|ripencc|2003-12-01|ISKRATELECOM-AS SEVEN-SKY, RU
83.137.41.10|31394|83.137.40.0/21|AT|ripencc|2004-05-03|NEMOX-NET-AS, AT
83.163.153.74|3265|83.160.0.0/14|NL|ripencc|2004-03-03|XS4ALL-NL Amsterdam, NL
83.28.49.28|5617|83.24.0.0/13|PL|ripencc|2003-12-03|TPNET, PL
85.214.123.127|6724|85.214.0.0/15|DE|ripencc|2005-02-24|STRATO STRATO AG, DE
86.135.222.202|2856|86.128.0.0/12|GB|ripencc|2005-02-07|BT-UK-AS BTnet UK Regional network, GB
87.120.254.120|34224|87.120.254.0/24|BG|ripencc|2005-07-12|NETERRA-AS, BG
91.13.95.186|3320|91.0.0.0/10|DE|ripencc|2006-07-03|DTAG Internet service provider operations, DE
92.253.144.180|50923|92.253.144.0/20|CZ|ripencc|2007-12-03|METRO-SET-AS Metroset Autonomous System, RU
94.130.20.181|24940|94.130.0.0/16|DE|ripencc|2008-06-23|HETZNER-AS, DE
94.199.173.120|48362|94.199.168.0/21|AT|ripencc|2008-11-17|TKSWF-AS, AT
95.110.234.93|31034|95.110.192.0/18|IT|ripencc|2008-12-18|ARUBA-ASN, IT
95.143.218.179|29124|95.143.208.0/20|RU|ripencc|2009-09-08|ISKRATELECOM-AS SEVEN-SKY, RU
95.211.207.81|60781|95.211.0.0/16|NL|ripencc|2009-02-05|LEASEWEB-NL-AMS-01 Netherlands, NL
