# bitcoin dns seeds and whois results
IP Address|ASN|BGP Prefix|CC|Registry|Allocated|AS Name
103.232.104.227|23655|103.232.104.0/22|NZ|apnic|2016-06-29|SNAP-NZ-AS Snap Internet Limited, NZ
103.57.201.91|136209|103.57.201.0/24|HK|apnic|2015-05-20|BN-AS-KR Korea Fast Networks, KR
104.230.217.102|10796|104.230.128.0/17|US|arin|2014-10-07|TWC-10796-MIDWEST, US
110.232.14.108|4721|110.232.0.0/20|JP|apnic|2009-05-12|JCN Jupiter Telecommunications Co., Ltd., JP
113.116.130.77|4134|113.112.0.0/13|CN|apnic|2008-11-03|CHINANET-BACKBONE No.31,Jin-rong Street, CN
113.255.239.194|9304|113.255.192.0/18|HK|apnic|2008-12-18|HUTCHISON-AS-AP HGC Global Communications Limited, HK
12.191.193.202|7018|12.128.0.0/9|US|arin|1983-08-23|ATT-INTERNET4, US
123.203.163.128|9269|123.203.128.0/18|HK|apnic|2006-12-18|HKBN-AS-AP Hong Kong Broadband Network Ltd., HK
13.212.217.254|16509|13.212.0.0/15|US|arin|2019-10-01|AMAZON-02, US
134.209.226.191|14061|134.209.224.0/20|US|arin|2018-10-18|DIGITALOCEAN-ASN, US
136.56.170.96|16591|136.56.160.0/20|US|arin|2015-10-06|GOOGLE-FIBER, US
141.223.82.131|3784|141.223.64.0/18|KR|apnic|1990-08-03|POSTECH-AS-KR Pohang University of Science and Technology, KR
143.110.157.215|14061|143.110.144.0/20|US|arin|2020-01-17|DIGITALOCEAN-ASN, US
143.110.158.176|14061|143.110.144.0/20|US|arin|2020-01-17|DIGITALOCEAN-ASN, US
144.2.101.100|57370|144.2.96.0/20|CH|ripencc|1993-09-01|WINGO, CH
147.135.6.179|16276|147.135.0.0/17|US|arin|2017-03-22|OVH, FR
151.205.188.39|701|151.205.160.0/19|US|arin|1991-09-25|UUNET, US
157.13.61.69|2907|157.13.0.0/16|JP|apnic|1992-09-03|SINET-AS Research Organization of Information and Systems, National Institute of Informatics, JP
161.35.180.237|14061|161.35.176.0/20|US|arin|2019-07-30|DIGITALOCEAN-ASN, US
162.255.137.142|47869|162.255.136.0/22|US|arin|2014-05-15|NETROUTING-AS, NL
166.70.94.106|6315|166.70.0.0/16|US|arin|1997-02-19|XMISSION, US
167.99.139.43|14061|167.99.128.0/20|US|arin|2017-11-10|DIGITALOCEAN-ASN, US
168.119.176.222|24940|168.119.0.0/16|DE|ripencc|1994-04-05|HETZNER-AS, DE
171.7.29.90|45758|171.7.0.0/16|TH|apnic|2011-03-07|TRIPLETNET-AS-AP Triple T Internet/Triple T Broadband, TH
172.104.145.55|63949|172.104.128.0/19|US|arin|2015-06-19|LINODE-AP Linode, LLC, US
178.20.100.35|45012|178.20.100.0/22|DE|ripencc|2010-02-22|CLOUDPIT, DE
178.236.87.138|42560|178.236.80.0/20|BA|ripencc|2010-06-02|BA-TELEMACH-AS Telemach d.o.o. Sarajevo, BA
179.96.241.250|53059|179.96.240.0/20|BR|lacnic|2013-04-23|Center Prestadora Servicos S/C Ltda, BR
18.183.106.234|16509|18.183.0.0/16|US|arin|2019-10-07|AMAZON-02, US
18.193.3.1|16509|18.192.0.0/15|US|arin|2019-10-07|AMAZON-02, US
18.27.79.17|3|18.27.0.0/16|US|arin|1994-01-01|MIT-GATEWAYS, US
181.171.120.21|7303|181.171.96.0/19|AR|lacnic|2013-05-14|Telecom Argentina S.A., AR
181.48.77.26|14080|181.48.64.0/19|CO|lacnic|2011-05-02|Telmex Colombia S.A., CO
182.61.146.95|38365|182.61.144.0/21|CN|apnic|2010-02-25|BAIDU Beijing Baidu Netcom Science and Technology Co., Ltd., CN
185.181.61.140|56655|185.181.60.0/22|NO|ripencc|2016-12-08|TERRAHOST, NO
185.98.191.188|35575|185.98.191.0/24|GB|ripencc|2015-05-01|VAIONI, GB
186.249.217.25|263569|186.249.216.0/22|BR|lacnic|2013-08-09|DIRECT WIFI TELECOM LTDA. ME, BR
186.61.68.227|22927|186.60.0.0/14|AR|lacnic|2009-07-16|Telefonica de Argentina, AR
188.155.91.186|6730|188.154.0.0/15|CH|ripencc|2009-05-08|SUNRISE, CH
189.174.10.34|8151|189.174.10.0/24|MX|lacnic|2006-05-12|Uninet S.A. de C.V., MX
189.212.121.74|6503|189.212.112.0/20|MX|lacnic|2008-08-12|Axtel, S.A.B. de C.V., MX
190.19.27.94|10318|190.19.0.0/19|AR|lacnic|2007-08-03|Telecom Argentina S.A., AR
192.166.219.200|41508|192.166.216.0/22|PL|ripencc|2011-03-03|PL-IWACOM-AS, PL
192.3.11.24|36352|192.3.0.0/20|US|arin|2013-06-07|AS-COLOCROSSING, US
192.3.185.210|36352|192.3.176.0/20|US|arin|2013-06-07|AS-COLOCROSSING, US
192.65.170.15|22581|192.65.170.0/24|VI|arin|2014-11-26|ACE-STX, VI
194.14.246.50|50066|194.14.246.0/24|SE|ripencc|1993-12-09|SRSTUBES-AS, SE
195.135.194.8|39149|195.135.194.0/24|RO|ripencc|2009-01-14|STS International SRL, RO
195.91.239.8|8331|195.91.128.0/17|RU|ripencc|1997-08-01|RINET-AS Cronyx Plus Ltd, RU
2.133.185.247|9198|2.133.176.0/20|KZ|ripencc|2010-12-23|KAZTELECOM-AS, KZ
202.239.42.192|4694|202.239.32.0/19|JP|apnic|1995-03-29|IDCF IDC Frontier Inc., JP
202.73.14.205|55720|202.73.14.0/24|MY|apnic|2004-12-03|GIGABIT-MY Gigabit Hosting Sdn Bhd, MY
203.135.149.182|23881|203.135.149.0/24|HK|apnic|2000-07-05|UDOMAIN-AS-AP UDomain Web Hosting Company Ltd, HK
205.178.63.192|6079|205.178.0.0/17|US|arin|1995-03-20|RCN-AS, US
205.234.55.26|6058|205.234.54.0/23|CA|arin|2004-04-06|NORTHWESTEL-INC, CA
206.252.192.10|8002|206.252.192.0/19|US|arin|1996-08-12|STEALTH, US
209.58.145.157|394380|209.58.144.0/20|US|arin|1999-04-29|LEASEWEB-USA-DAL-10, US
212.97.48.5|5602|212.97.32.0/19|IT|ripencc|1999-06-29|AS-IRIDEOS-KP, IT
213.152.106.56|57154|213.152.96.0/19|DE|ripencc|2008-10-10|SWKN Stadtwerke Konstanz GmbH, DE
213.219.144.164|9031|213.219.128.0/18|BE|ripencc|2000-08-30|EDPNET, BE
216.18.178.238|29789|216.18.160.0/19|US|arin|2009-08-31|REFLECTED, US
217.19.216.210|1547|217.19.216.0/24|MD|ripencc|2003-01-24|IDK-NETWORK, MD
24.184.0.146|6128|24.184.0.0/14|US|arin|2000-12-12|CABLE-NET-1, US
3.10.70.38|16509|3.8.0.0/14|US|arin|2017-12-20|AMAZON-02, US
3.123.28.195|16509|3.120.0.0/14|US|arin|2017-12-20|AMAZON-02, US
34.106.214.26|15169|34.104.0.0/14|US|arin|2018-09-28|GOOGLE, US
34.241.94.237|16509|34.240.0.0/13|US|arin|2016-09-12|AMAZON-02, US
34.247.49.32|16509|34.240.0.0/13|US|arin|2016-09-12|AMAZON-02, US
34.65.37.217|15169|34.64.0.0/14|US|arin|2018-09-28|GOOGLE, US
34.91.188.86|15169|34.88.0.0/14|US|arin|2018-09-28|GOOGLE, US
34.96.182.63|15169|34.96.128.0/17|US|arin|2018-09-28|GOOGLE, US
35.154.84.205|16509|35.154.0.0/16|US|arin|2016-08-09|AMAZON-02, US
35.182.18.213|16509|35.182.0.0/15|US|arin|2016-08-09|AMAZON-02, US
35.244.9.182|15169|35.244.0.0/14|US|arin|2017-09-29|GOOGLE, US
35.246.231.230|15169|35.244.0.0/14|US|arin|2017-09-29|GOOGLE, US
45.32.116.44|20473|45.32.96.0/19|US|arin|2015-02-17|AS-CHOOPA, US
47.108.21.116|37963|47.108.0.0/16|CN|apnic|1989-01-06|CNNIC-ALIBABA-CN-NET-AP Hangzhou Alibaba Advertising Co.,Ltd., CN
47.244.44.239|45102|47.244.0.0/17|US|arin|2016-04-15|CNNIC-ALIBABA-US-NET-AP Alibaba (US) Technology Co., Ltd., CN
47.75.116.211|45102|47.75.0.0/17|US|arin|2016-03-17|CNNIC-ALIBABA-US-NET-AP Alibaba (US) Technology Co., Ltd., CN
5.182.209.18|62068|5.182.209.0/24|NL|ripencc|2019-04-09|SPECTRAIP SpectraIP B.V., NL
51.158.167.213|12876|51.158.128.0/17|FR|ripencc|1993-09-01|Online SAS, FR
61.250.91.26|9848|61.250.64.0/18|KR|apnic|2001-03-21|SEJONGTELECOM-AS-KR Sejong Telecom, KR
62.210.131.148|12876|62.210.0.0/16|FR|ripencc|2000-10-26|Online SAS, FR
62.210.207.63|12876|62.210.0.0/16|FR|ripencc|2000-10-26|Online SAS, FR
62.251.107.169|3265|62.251.0.0/17|NL|ripencc|2001-01-03|XS4ALL-NL Amsterdam, NL
62.75.216.136|8972|62.75.216.0/24|DE|ripencc|2001-07-27|GD-EMEA-DC-SXB1, DE
64.225.0.238|14061|64.225.0.0/20|US|arin|2019-08-14|DIGITALOCEAN-ASN, US
66.219.10.103|25769|66.219.0.0/20|US|arin|2007-11-13|GVTEL, US
68.142.33.36|12282|68.142.32.0/19|US|arin|2006-01-12|GMA, US
69.228.211.56|7018|69.228.0.0/15|US|arin|2004-02-18|ATT-INTERNET4, US
72.14.184.118|63949|72.14.176.0/20|US|arin|2008-05-21|LINODE-AP Linode, LLC, US
73.168.170.206|7922|73.0.0.0/8|US|arin|2005-04-19|COMCAST-7922, US
73.7.135.222|7922|73.0.0.0/8|US|arin|2005-04-19|COMCAST-7922, US
74.207.152.2|14543|74.207.128.0/18|US|arin|2006-10-25|SRT-ASN, US
76.185.111.141|11427|76.184.0.0/14|US|arin|2006-07-26|TWC-11427-TEXAS, US
76.250.150.193|7018|76.248.0.0/14|US|arin|2006-09-15|ATT-INTERNET4, US
78.119.180.62|8228|78.112.0.0/12|FR|ripencc|2007-05-03|CEGETEL-AS, FR
8.209.71.217|45102|8.209.64.0/19|SG|apnic|1992-12-01|CNNIC-ALIBABA-US-NET-AP Alibaba (US) Technology Co., Ltd., CN
82.10.220.141|5089|82.8.0.0/14|GB|ripencc|2003-02-28|NTL, GB
82.124.25.249|3215|82.124.0.0/16|FR|ripencc|2003-10-21|France Telecom - Orange, FR
82.212.44.95|6830|82.212.0.0/18|DE|ripencc|2003-10-15|LIBERTYGLOBAL Liberty Global (formerly UPC Broadband Holding, aka AORTA), NL
82.221.131.22|50613|82.221.128.0/19|IS|ripencc|2003-12-11|THORDC-AS, IS
85.17.170.22|60781|85.17.0.0/16|NL|ripencc|2005-03-11|LEASEWEB-NL-AMS-01 Netherlands, NL
85.208.71.21|42275|85.208.71.0/24|FR|ripencc|2019-02-21|THREEFOURTEEN, FR
85.229.132.204|2119|85.224.0.0/13|SE|ripencc|2004-12-17|TELENOR-NEXTEL Telenor Norge AS, NO
86.0.33.192|5089|86.0.0.0/16|GB|ripencc|2005-03-29|NTL, GB
86.107.187.54|207375|86.107.186.0/23|NL|ripencc|2005-04-18|FIBO, NL
87.126.135.130|8866|87.126.135.0/24|BG|ripencc|2005-09-05|BTC-AS BULGARIA, BG
88.202.183.8|13213|88.202.176.0/20|GB|ripencc|2005-11-22|UK2NET-AS, GB
91.138.184.109|3329|91.138.128.0/17|GR|ripencc|2006-10-13|HOL-GR Athens, Greece, GR
94.114.158.146|6830|94.114.0.0/15|DE|ripencc|2008-07-09|LIBERTYGLOBAL Liberty Global (formerly UPC Broadband Holding, aka AORTA), NL
94.130.84.44|24940|94.130.0.0/16|DE|ripencc|2008-06-23|HETZNER-AS, DE
94.250.254.147|29182|94.250.254.0/23|RU|ripencc|2012-09-12|THEFIRST-AS, RU
95.110.234.93|31034|95.110.192.0/18|IT|ripencc|2008-12-18|ARUBA-ASN, IT
96.43.141.234|19969|96.43.128.0/20|US|arin|2009-10-16|JOESDATACENTER, US
96.9.209.210|46844|96.9.208.0/23|US|arin|2015-03-10|ST-BGP, US
