# bitcoin dns seeds and whois results
IP Address|ASN|BGP Prefix|CC|Registry|Allocated|AS Name
103.199.18.37|63734|103.199.16.0/22|VN|apnic|2015-10-22|GREENCLOUDVPS-AS-VN 365 Online technology joint stock company, VN
104.171.124.226|31863|104.171.112.0/20|US|arin|2014-09-10|DACEN-2, US
104.248.2.226|14061|104.248.0.0/20|US|arin|2018-08-06|DIGITALOCEAN-ASN, US
104.60.247.230|7018|104.48.0.0/12|US|arin|2014-05-06|ATT-INTERNET4, US
109.110.81.90|35816|109.110.64.0/19|RU|ripencc|2009-11-19|SEVSTAR Sevastopol, Russia, RU
109.236.88.245|49981|109.236.80.0/20|NL|ripencc|2009-12-04|WORLDSTREAM, NL
116.203.61.61|24940|116.203.0.0/16|DE|ripencc|2011-01-17|HETZNER-AS, DE
117.74.45.247|59108|117.74.32.0/19|JP|apnic|2007-07-06|KATCH-NET KATCH NETWORK INC., JP
135.181.109.133|24940|135.181.0.0/16|DE|ripencc|1996-04-30|HETZNER-AS, DE
135.181.109.139|24940|135.181.0.0/16|DE|ripencc|1996-04-30|HETZNER-AS, DE
136.144.244.211|20857|136.144.192.0/18|NL|ripencc|1989-08-29|TRANSIP-AS Amsterdam, the Netherlands, NL
139.59.92.87|14061|139.59.80.0/20|SG|apnic|1990-06-27|DIGITALOCEAN-ASN, US
14.200.204.192|7545|14.200.204.0/23|AU|apnic|2010-09-14|TPG-INTERNET-AP TPG Telecom Limited, AU
141.135.2.95|6848|141.134.0.0/15|BE|ripencc|2011-06-20|TELENET-AS, BE
146.226.76.227|20243|146.226.0.0/17|VI|arin|1991-02-28|U, VI
148.251.82.174|24940|148.251.0.0/16|DE|ripencc|1993-09-01|HETZNER-AS, DE
159.138.87.18|136907|159.138.80.0/20|SG|apnic|1992-04-20|HWCLOUDS-AS-AP HUAWEI CLOUDS, HK
161.97.84.78|51167|161.97.84.0/23|DE|ripencc|1992-06-23|CONTABO, DE
168.119.103.204|24940|168.119.0.0/16|DE|ripencc|1994-04-05|HETZNER-AS, DE
170.106.39.246|132203|170.106.36.0/22|SG|apnic|1994-03-25|TENCENT-NET-AP-CN Tencent Building, Kejizhongyi Avenue, CN
172.105.21.216|63949|172.105.0.0/19|US|arin|2015-06-19|LINODE-AP Linode, LLC, US
175.182.7.73|4780|175.182.7.0/24|TW|apnic|2010-01-27|SEEDNET Digital United Inc., TW
176.9.101.122|24940|176.9.0.0/16|DE|ripencc|2011-05-17|HETZNER-AS, DE
176.9.112.164|24940|176.9.0.0/16|DE|ripencc|2011-05-17|HETZNER-AS, DE
178.124.162.209|6697|178.124.162.0/24|BY|ripencc|2009-12-10|BELPAK-AS BELPAK, BY
178.196.1.210|3303|178.196.0.0/15|CH|ripencc|2010-02-24|SWISSCOM Swisscom (Switzerland) Ltd, CH
178.236.87.138|42560|178.236.80.0/20|BA|ripencc|2010-06-02|BA-TELEMACH-AS Telemach d.o.o. Sarajevo, BA
18.230.191.224|16509|18.230.0.0/16|US|arin|2019-10-07|AMAZON-02, US
182.55.245.25|4657|182.55.245.0/24|SG|apnic|2010-03-01|STARHUB-INTERNET StarHub Ltd, SG
183.77.157.168|4685|183.76.0.0/15|JP|apnic|2009-10-30|ASAHI-NET Asahi Net, JP
185.14.29.202|21100|185.14.28.0/22|UA|ripencc|2012-12-21|ITLDC-NL, UA
185.210.224.102|49432|185.210.224.0/24|AT|ripencc|2017-06-29|SCHALLERT-AS schallert.com e.U., AT
185.233.148.146|60118|185.233.148.0/22|RO|ripencc|2017-11-24|CYBERSMARTSOLUTIONS-AS, RO
185.66.180.33|201375|185.66.180.0/24|GB|ripencc|2014-08-08|NG-MKDC0, GB
186.88.132.250|8048|186.88.128.0/19|VE|lacnic|2009-11-18|CANTV Servicios, Venezuela, VE
188.127.229.105|56694|188.127.224.0/20|RU|ripencc|2009-08-06|DHUB, RU
188.134.6.84|41733|188.134.0.0/17|RU|ripencc|2009-04-27|ZTELECOM-AS, RU
188.134.94.99|41733|188.134.0.0/17|RU|ripencc|2009-04-27|ZTELECOM-AS, RU
190.0.236.200|28073|190.0.236.0/24|AR|lacnic|2010-11-09|Cooperativa Electrica Trenque Lauquen, AR
192.227.80.83|13886|192.227.80.0/22|US|arin|2017-01-30|CLOUD-SOUTH, US
192.252.213.182|46562|192.252.213.0/24|US|arin|2013-07-03|PERFORMIVE, US
194.176.118.175|49352|194.176.118.0/24|RU|ripencc|2006-07-26|LOGOL-AS, RU
195.201.240.107|24940|195.201.0.0/16|DE|ripencc|1997-09-22|HETZNER-AS, DE
200.150.103.196|14868|200.150.96.0/19|BR|lacnic|2011-07-28|COPEL Telecomunicacoes S.A., BR
201.14.128.223|8167|201.14.128.0/18|BR|lacnic|2004-07-08|Brasil Telecom S/A - Filial Distrito Federal, BR
201.212.29.93|10481|201.212.0.0/19|AR|lacnic|2005-08-09|Telecom Argentina S.A., AR
202.239.42.192|4694|202.239.32.0/19|JP|apnic|1995-03-29|IDCF IDC Frontier Inc., JP
206.189.222.161|14061|206.189.208.0/20|US|arin|1995-11-15|DIGITALOCEAN-ASN, US
206.189.62.14|14061|206.189.48.0/20|US|arin|1995-11-15|DIGITALOCEAN-ASN, US
209.97.189.249|14061|209.97.176.0/20|US|arin|1997-07-03|DIGITALOCEAN-ASN, US
211.23.128.57|3462|211.23.0.0/16|TW|apnic|2000-06-30|HINET Data Communication Business Group, TW
212.227.253.11|8560|212.227.0.0/16|DE|ripencc|1998-09-10|IONOS-AS This is the joint network for IONOS, Fasthosts, Arsys, 1&1 Mail and Media and 1&1 Telecom. Formerly known as 1&1 Internet SE., DE
212.9.185.194|12374|212.9.160.0/19|DE|ripencc|1999-04-09|LFNET-AS01, DE
213.148.199.23|16030|213.148.199.0/24|ES|ripencc|2008-01-31|ALTECOM, ES
213.152.176.162|49453|213.152.176.0/24|NL|ripencc|2010-07-09|GLOBALLAYER, NL
213.178.28.118|29413|213.178.16.0/20|DE|ripencc|1999-12-15|KOMRO-AS Komro Telekommunikations GmbH, DE
213.239.196.9|24940|213.239.192.0/18|DE|ripencc|2003-05-28|HETZNER-AS, DE
23.111.184.229|29802|23.111.184.0/24|US|arin|2015-11-13|HVC-AS, US
23.226.1.83|23881|23.226.1.0/24|HK|apnic|2013-09-09|UDOMAIN-AS-AP UDomain Web Hosting Company Ltd, HK
23.226.90.172|62727|23.226.80.0/20|US|arin|2013-09-12|PLEXICOMM, US
3.233.220.90|14618|3.224.0.0/12|US|arin|2018-06-25|AMAZON-AES, US
31.134.121.208|56668|31.134.120.0/21|UA|ripencc|2011-04-21|SIMNET-UA-AS Kiev, Ukraine, UA
34.125.77.92|15169|34.124.0.0/14|US|arin|2018-09-28|GOOGLE, US
34.126.120.20|15169|34.124.0.0/14|US|arin|2018-09-28|GOOGLE, US
34.64.137.48|139070|34.64.0.0/16|US|arin|2018-09-28|GOOGLE-AS-AP Google Asia Pacific Pte. Ltd., SG
34.65.190.212|15169|34.64.0.0/14|US|arin|2018-09-28|GOOGLE, US
34.80.134.68|15169|34.80.0.0/14|US|arin|2018-09-28|GOOGLE, US
34.84.22.94|15169|34.84.0.0/14|US|arin|2018-09-28|GOOGLE, US
34.87.61.90|15169|34.84.0.0/14|US|arin|2018-09-28|GOOGLE, US
35.178.202.209|16509|35.178.0.0/15|US|arin|2016-08-09|AMAZON-02, US
35.212.238.207|15169|35.212.128.0/17|US|arin|2017-09-29|GOOGLE, US
35.244.103.240|15169|35.244.0.0/14|US|arin|2017-09-29|GOOGLE, US
37.187.109.60|16276|37.187.0.0/16|FR|ripencc|2012-03-20|OVH, FR
37.187.3.112|16276|37.187.0.0/16|FR|ripencc|2012-03-20|OVH, FR
38.242.12.100|64249|38.242.12.0/24|US|arin|1991-04-16|ENDOFFICE, US
39.101.206.20|37963|39.100.0.0/14|CN|apnic|2011-04-05|CNNIC-ALIBABA-CN-NET-AP Hangzhou Alibaba Advertising Co.,Ltd., CN
45.85.85.9|52423|45.85.85.0/24|AT|ripencc|2019-06-05|Data Miners S.A. ( Racknation.cr ), CR
46.188.15.6|8334|46.188.0.0/17|RU|ripencc|2010-11-24|CO-2COM-AS Moscow, RU
46.29.19.25|197226|46.29.16.0/21|PL|ripencc|2010-08-02|SPRINT-SDC, PL
46.59.243.225|15943|46.59.128.0/17|DE|ripencc|2010-10-21|WTNET-AS wilhelm.tel GmbH, DE
46.8.179.104|137443|46.8.178.0/23|CZ|ripencc|2010-09-07|ANCHGLOBAL-AS-AP Anchnet Asia Limited, HK
47.113.108.107|37963|47.113.0.0/16|CN|apnic|1989-01-06|CNNIC-ALIBABA-CN-NET-AP Hangzhou Alibaba Advertising Co.,Ltd., CN
47.222.103.234|19108|47.220.0.0/14|US|arin|2015-09-08|SUDDENLINK-COMMUNICATIONS, US
47.52.28.179|45102|47.52.0.0/17|US|arin|2016-03-17|CNNIC-ALIBABA-US-NET-AP Alibaba (US) Technology Co., Ltd., CN
5.182.209.18|62068|5.182.209.0/24|NL|ripencc|2019-04-09|SPECTRAIP SpectraIP B.V., NL
51.75.242.135|16276|51.75.0.0/16|FR|ripencc|1993-09-01|OVH, FR
51.91.94.23|16276|51.91.0.0/16|FR|ripencc|1993-09-01|OVH, FR
52.13.22.56|16509|52.12.0.0/15|US|arin|1991-12-19|AMAZON-02, US
52.77.156.14|16509|52.77.0.0/16|US|arin|1991-12-19|AMAZON-02, US
54.213.65.91|16509|54.213.0.0/16|US|arin|2014-10-23|AMAZON-02, US
60.208.157.173|4837|60.208.0.0/13|CN|apnic|2004-07-05|CHINA169-BACKBONE CHINA UNICOM China169 Backbone, CN
62.138.206.160|61157|62.138.192.0/20|DE|ripencc|2000-09-19|PLUSSERVER-ASN1, DE
62.171.191.72|51167|62.171.190.0/23|DE|ripencc|2000-08-18|CONTABO, DE
63.247.147.166|30221|63.247.144.0/20|US|arin|2007-04-11|T3COM, US
65.35.192.46|33363|65.35.0.0/16|US|arin|2000-08-22|BHN-33363, US
67.210.228.203|7819|67.210.224.0/21|US|arin|2007-08-22|GLOBAL-IP-NETWORKS, US
72.174.254.198|33588|72.174.0.0/15|US|arin|2005-12-06|BRESNAN-33588, US
73.170.66.172|7922|73.0.0.0/8|US|arin|2005-04-19|COMCAST-7922, US
78.150.112.143|13285|78.150.0.0/15|GB|ripencc|2007-05-10|OPALTELECOM-AS TalkTalk Communications Limited, GB
81.10.227.233|12605|81.10.128.0/17|AT|ripencc|2002-04-16|LIWEST-AT Linz, Austria, AT
82.199.102.10|30784|82.199.96.0/19|RU|ripencc|2003-12-01|ISKRATELECOM-AS SEVEN-SKY, RU
84.15.106.3|13194|84.15.0.0/16|LT|ripencc|2004-07-29|BITE Bite IP Network, LT
85.12.241.144|28890|85.12.192.0/18|RU|ripencc|2006-10-01|INSYS-AS INSYS ISP, RU
85.164.4.99|2119|85.164.0.0/14|NO|ripencc|2004-11-18|TELENOR-NEXTEL Telenor Norge AS, NO
85.174.64.127|12389|85.174.64.0/22|RU|ripencc|2004-12-22|ROSTELECOM-AS, RU
85.208.71.21|42275|85.208.71.0/24|FR|ripencc|2019-02-21|THREEFOURTEEN, FR
85.220.190.246|25394|85.220.128.0/17|DE|ripencc|2005-02-07|MK-NETZDIENSTE-AS, DE
87.75.105.186|25310|87.74.0.0/15|GB|ripencc|2005-05-11|ASN-CWACCESS, GB
88.105.84.130|9105|88.104.0.0/15|GB|ripencc|2005-08-05|TISCALI-UK TalkTalk Communications Limited, GB
88.147.244.250|12389|88.147.128.0/17|RU|ripencc|2006-01-11|ROSTELECOM-AS, RU
88.21.152.174|3352|88.21.0.0/16|ES|ripencc|2005-07-13|TELEFONICA_DE_ESPANA, ES
88.86.243.241|48432|88.86.240.0/20|FR|ripencc|2006-02-15|SCGS-AS, FR
91.228.155.97|44066|91.228.152.0/22|ES|ripencc|2011-06-01|DE-FIRSTCOLO www.first-colo.net, DE
93.83.126.93|8447|93.82.0.0/15|AT|ripencc|2008-02-08|A1TELEKOM-AT A1 Telekom Austria AG, AT
94.155.115.161|8866|94.155.112.0/21|BG|ripencc|2008-08-21|BTC-AS BULGARIA, BG
94.242.213.65|5577|94.242.213.0/24|LU|ripencc|2008-10-21|ROOT, LU
95.67.38.55|34867|95.67.0.0/17|UA|ripencc|2009-11-30|COSMONOVA-AS Cosmonova LLC, UA
95.79.35.133|42682|95.79.0.0/16|RU|ripencc|2008-12-10|ERTH-NNOV-AS, RU
