# bitcoin dns seeds and whois results
IP Address|ASN|BGP Prefix|CC|Registry|Allocated|AS Name
102.132.245.16|37680|102.132.240.0/20|ZA|afrinic|2018-07-04|COOL-IDEAS, ZA
107.151.150.215|21859|107.151.150.0/24|US|arin|2013-12-02|ZNET, US
128.199.254.45|14061|128.199.192.0/18|GB|ripencc|1999-04-12|DIGITALOCEAN-ASN, US
128.2.12.38|9|128.2.0.0/16|US|arin|1984-04-17|CMU-ROUTER, US
135.181.165.182|24940|135.181.0.0/16|DE|ripencc|1996-04-30|HETZNER-AS, DE
141.223.82.61|3784|141.223.64.0/18|KR|apnic|1990-08-03|POSTECH-AS-KR Pohang University of Science and Technology, KR
143.178.57.3|50266|143.178.0.0/17|NL|ripencc|1990-10-01|TMOBILE-THUIS, NL
143.59.79.44|12083|143.59.0.0/16|US|arin|2018-04-27|WOW-INTERNET, US
144.137.29.181|1221|144.136.0.0/15|AU|apnic|1990-12-10|ASN-TELSTRA Telstra Corporation Ltd, AU
15.165.33.136|16509|15.164.0.0/15|US|arin|2018-09-27|AMAZON-02, US
151.30.148.198|1267|151.30.0.0/16|IT|ripencc|1991-05-13|ASN-WINDTRE IUNET, IT
157.245.78.4|14061|157.245.64.0/20|US|arin|2019-05-09|DIGITALOCEAN-ASN, US
159.250.116.231|11776|159.250.112.0/21|US|arin|2019-09-03|ATLANTICBB-JOHNSTOWN, US
162.209.1.233|19994|162.209.0.0/18|US|arin|2013-03-26|RACKSPACE, US
166.70.83.240|6315|166.70.0.0/16|US|arin|1997-02-19|XMISSION, US
168.119.176.222|24940|168.119.0.0/16|DE|ripencc|1994-04-05|HETZNER-AS, DE
173.12.181.181|7922|173.8.0.0/13|US|arin|2008-05-05|COMCAST-7922, US
174.114.102.41|812|174.114.0.0/16|CA|arin|2009-03-04|ROGERS-COMMUNICATIONS, CA
175.214.58.100|4766|175.208.0.0/13|KR|apnic|2010-01-27|KIXS-AS-KR Korea Telecom, KR
176.31.224.214|16276|176.31.0.0/16|FR|ripencc|2011-05-20|OVH, FR
176.9.32.126|24940|176.9.0.0/16|DE|ripencc|2011-05-17|HETZNER-AS, DE
178.236.87.138|42560|178.236.80.0/20|BA|ripencc|2010-06-02|BA-TELEMACH-AS Telemach d.o.o. Sarajevo, BA
178.238.123.43|29226|178.238.112.0/20|RU|ripencc|2010-07-16|MASTERTEL-AS Moscow, Russia, RU
178.32.220.61|16276|178.32.0.0/15|FR|ripencc|2010-01-19|OVH, FR
178.63.127.150|24940|178.63.0.0/16|DE|ripencc|2010-03-02|HETZNER-AS, DE
18.158.93.160|16509|18.156.0.0/14|US|arin|2019-10-07|AMAZON-02, US
182.100.67.50|4134|182.96.0.0/12|CN|apnic|2010-03-02|CHINANET-BACKBONE No.31,Jin-rong Street, CN
183.84.11.59|23724|183.84.0.0/15|CN|apnic|2009-11-12|CHINANET-IDC-BJ-AP IDC, China Telecommunications Corporation, CN
185.107.15.161|204151|185.107.12.0/22|DK|ripencc|2015-07-01|KVIKNET-, DK
185.132.178.23|49981|185.132.176.0/22|NL|ripencc|2015-12-23|WORLDSTREAM, NL
185.14.29.22|21100|185.14.28.0/22|UA|ripencc|2012-12-21|ITLDC-NL, UA
185.51.61.244|42065|185.51.60.0/22|AG|ripencc|2014-03-21|ETELECOM-AS, RU
185.8.104.152|16125|185.8.104.0/23|LT|ripencc|2012-10-30|CHERRYSERVERS1-AS, LT
188.134.8.36|41733|188.134.0.0/17|RU|ripencc|2009-04-27|ZTELECOM-AS, RU
188.149.149.142|39651|188.148.0.0/14|SE|ripencc|2009-03-17|COMHEM-SWEDEN, SE
190.101.168.19|22047|190.101.160.0/19|CL|lacnic|2011-04-26|VTR BANDA ANCHA S.A., CL
193.58.196.212|5578|193.58.196.0/23|SK|ripencc|1997-01-21|AS-BENESTRA Bratislava, Slovak Republic, SK
194.14.246.85|50066|194.14.246.0/24|SE|ripencc|1993-12-09|SRSTUBES-AS, SE
195.206.105.42|9009|195.206.105.0/24|RO|ripencc|2018-08-07|M247, GB
197.245.7.249|11845|197.245.0.0/16|ZA|afrinic|2011-08-17|Vox-Telecom, ZA
198.211.102.227|14061|198.211.96.0/20|US|arin|2013-02-15|DIGITALOCEAN-ASN, US
199.182.184.204|27223|199.182.184.0/22|US|arin|2012-04-23|LOATHING, US
199.48.94.175|30600|199.48.94.0/23|US|arin|2016-12-19|AS-CMN, US
200.145.2.23|53166|200.145.0.0/17|BR|lacnic|1999-11-12|UNIVERSIDADE ESTADUAL PAULISTA, BR
204.111.241.195|4922|204.111.128.0/17|US|arin|1995-05-03|SHENTEL, US
206.55.210.10|33618|206.55.210.0/24|US|arin|2008-03-27|SERVLET-LLC-AS, US
207.180.233.49|51167|207.180.232.0/23|DE|ripencc|1996-08-21|CONTABO, DE
207.180.244.165|51167|207.180.244.0/23|DE|ripencc|1996-08-21|CONTABO, DE
208.76.252.198|21769|208.76.248.0/21|US|arin|2007-04-06|AS-COLOAM, US
213.155.3.216|41665|213.155.0.0/19|UA|ripencc|2008-04-02|HOSTING-AS http://hosting.ua, UA
213.209.73.221|15943|213.209.64.0/18|DE|ripencc|2000-10-12|WTNET-AS wilhelm.tel GmbH, DE
213.93.110.135|33915|213.93.0.0/17|NL|ripencc|2000-05-09|TNF-AS, NL
216.74.32.109|20021|216.74.32.0/20|US|arin|1998-09-15|LNH-INC, US
220.133.39.61|3462|220.133.0.0/16|TW|apnic|2003-06-09|HINET Data Communication Business Group, TW
24.21.5.95|7922|24.16.0.0/13|US|arin|2003-12-08|COMCAST-7922, US
3.122.93.14|16509|3.120.0.0/14|US|arin|2017-12-20|AMAZON-02, US
3.96.170.113|16509|3.96.0.0/15|US|arin|2017-12-20|AMAZON-02, US
31.186.25.70|199484|31.186.25.0/24|TR|ripencc|2011-03-23|BETAINTERNATIONAL, TR
34.105.19.97|15169|34.104.0.0/14|US|arin|2018-09-28|GOOGLE, US
34.107.118.237|15169|34.104.0.0/14|US|arin|2018-09-28|GOOGLE, US
34.107.54.119|15169|34.104.0.0/14|US|arin|2018-09-28|GOOGLE, US
34.125.67.59|15169|34.124.0.0/14|US|arin|2018-09-28|GOOGLE, US
34.126.67.135|15169|34.124.0.0/14|US|arin|2018-09-28|GOOGLE, US
34.249.21.210|16509|34.248.0.0/13|US|arin|2016-09-12|AMAZON-02, US
34.86.248.96|15169|34.84.0.0/14|US|arin|2018-09-28|GOOGLE, US
34.95.165.1|15169|34.92.0.0/14|US|arin|2018-09-28|GOOGLE, US
34.95.4.198|15169|34.92.0.0/14|US|arin|2018-09-28|GOOGLE, US
35.189.27.73|15169|35.189.0.0/19|US|arin|2016-10-11|GOOGLE, US
35.243.70.255|15169|35.240.0.0/14|US|arin|2017-09-29|GOOGLE, US
37.59.61.212|16276|37.59.0.0/16|FR|ripencc|2012-01-16|OVH, FR
46.101.35.148|14061|46.101.0.0/18|US|ripencc|2010-06-24|DIGITALOCEAN-ASN, US
47.252.87.242|45102|47.252.64.0/18|US|arin|2016-04-15|CNNIC-ALIBABA-US-NET-AP Alibaba (US) Technology Co., Ltd., CN
5.188.33.194|199524|5.188.33.0/24|LU|ripencc|2012-08-09|GCORE, LU
50.115.47.50|18450|50.115.46.0/23|US|arin|2011-09-08|WEBNX, US
52.59.216.190|16509|52.58.0.0/15|US|arin|1991-12-19|AMAZON-02, US
54.243.100.79|14618|54.242.0.0/15|US|arin|2012-03-01|AMAZON-AES, US
62.113.240.122|47447|62.113.192.0/18|DE|ripencc|2009-04-15|TTM, DE
62.138.206.160|61157|62.138.192.0/20|DE|ripencc|2000-09-19|PLUSSERVER-ASN1, DE
66.42.163.222|6181|66.42.128.0/18|US|arin|2003-05-28|FUSE-NET, US
66.49.193.206|33139|66.49.192.0/20|CA|arin|2004-02-10|CANACA-210, CA
71.120.6.42|701|71.120.0.0/19|US|arin|2005-01-18|UUNET, US
74.116.30.12|31845|74.116.28.0/22|US|arin|2009-07-29|ISI COMMUNICATIONS, US
74.118.137.119|20326|74.118.136.0/21|US|arin|2009-10-12|TERASWITCH, US
74.207.152.2|14543|74.207.128.0/18|US|arin|2006-10-25|SRT-ASN, US
74.90.185.194|6128|74.90.0.0/16|US|arin|2009-03-04|CABLE-NET-1, US
75.158.39.231|852|75.158.0.0/17|CA|arin|2006-08-01|ASN852, CA
77.37.174.219|42610|77.37.128.0/17|RU|ripencc|2007-03-21|NCNET-AS, RU
77.95.167.28|39449|77.95.160.0/21|IE|ripencc|2007-06-12|FASTCOM-AS, IE
78.108.102.3|8251|78.108.96.0/20|CZ|ripencc|2007-06-18|NFX_ZSPO, CZ
78.132.33.63|8412|78.132.0.0/17|AT|ripencc|2007-05-30|TMA Magenta Telekom, AT
78.142.6.117|31083|78.142.6.0/24|BG|ripencc|2007-07-30|TELEPOINT, BG
78.43.204.223|3209|78.43.0.0/16|DE|ripencc|2007-03-23|VODANET International IP-Backbone of Vodafone, DE
79.124.7.253|203380|79.124.7.0/24|BG|ripencc|2007-07-31|DAINTERNATIONALGROUP, GB
80.108.52.102|6830|80.108.0.0/16|AT|ripencc|2001-07-19|LIBERTYGLOBAL Liberty Global (formerly UPC Broadband Holding, aka AORTA), NL
81.198.86.39|12578|81.198.0.0/16|LV|ripencc|2002-10-02|APOLLO-AS Latvia, LV
82.117.166.77|31036|82.117.160.0/19|RU|ripencc|2004-02-10|NEWTELESYSTEMS, RU
82.149.176.186|9145|82.149.160.0/19|DE|ripencc|2003-08-12|EWETEL Cloppenburger Strasse 310, DE
82.21.69.223|5089|82.20.0.0/14|GB|ripencc|2003-02-28|NTL, GB
82.65.13.159|12322|82.64.0.0/14|FR|ripencc|2003-04-03|PROXAD, FR
83.59.235.147|3352|83.59.0.0/16|ES|ripencc|2004-10-07|TELEFONICA_DE_ESPANA, ES
84.16.46.211|31679|84.16.32.0/19|SK|ripencc|2004-07-08|SLOVANET-MICRONET http://www.slovanet.net/, SK
84.17.54.71|60068|84.17.54.0/23|GB|ripencc|2004-07-23|CDN77 (^_^)/, GB
84.254.90.125|8758|84.254.80.0/20|CH|ripencc|2004-10-06|IWAY, CH
84.27.217.211|33915|84.24.0.0/14|NL|ripencc|2004-07-01|TNF-AS, NL
84.38.133.109|203557|84.38.133.0/24|BZ|ripencc|2006-05-26|DATACLUB-NL, BZ
84.40.96.129|43561|84.40.96.0/24|BG|ripencc|2009-10-02|NET1-AS, BG
87.122.15.194|8881|87.122.0.0/20|DE|ripencc|2005-07-27|VERSATEL, DE
89.238.77.110|34240|89.238.64.0/18|DE|ripencc|2006-07-21|MANITU, DE
89.56.148.84|207790|89.56.0.0/16|DE|ripencc|2005-11-23|SWNNMS, DE
91.126.234.159|35699|91.126.232.0/21|ES|ripencc|2006-10-24|ADAMOEU-AS Adamo Telecom Iberia S.A., ES
91.193.237.116|42916|91.193.236.0/23|RU|ripencc|2007-05-09|IT-AS, RU
92.104.173.28|3303|92.104.0.0/16|CH|ripencc|2007-09-28|SWISSCOM Swisscom (Switzerland) Ltd, CH
92.118.149.91|204957|92.118.149.0/24|UA|ripencc|2019-03-06|GREENFLOID-AS, BG
94.130.69.46|24940|94.130.0.0/16|DE|ripencc|2008-06-23|HETZNER-AS, DE
95.110.133.223|31034|95.110.128.0/21|IT|ripencc|2008-12-18|ARUBA-ASN, IT
95.110.234.93|31034|95.110.192.0/18|IT|ripencc|2008-12-18|ARUBA-ASN, IT
98.111.140.254|701|98.111.128.0/18|US|arin|2008-04-02|UUNET, US
98.170.208.161|22773|98.170.192.0/18|US|arin|2007-07-20|ASN-CXA-ALL-CCI-22773-RDC, US
98.21.69.169|7029|98.16.0.0/13|US|arin|2007-02-05|WINDSTREAM, US
