# bitcoin dns seeds and whois results
IP Address|ASN|BGP Prefix|CC|Registry|Allocated|AS Name
101.101.209.80|135354|101.101.208.0/20|KR|apnic|2011-02-28|NBPAP-AS-AP NAVER BUSINESS PLATFORM ASIA PACIFIC PTE. LTD., SG
101.32.19.184|132203|101.32.16.0/20|SG|apnic|2010-12-14|TENCENT-NET-AP-CN Tencent Building, Kejizhongyi Avenue, CN
102.132.245.16|37680|102.132.240.0/20|ZA|afrinic|2018-07-04|COOL-IDEAS, ZA
102.182.204.96|37611|102.182.0.0/16|ZA|afrinic|2017-06-02|Afrihost, ZA
103.99.170.198|54415|103.99.170.0/24|JP|apnic|2017-08-28|WIZ-JP-AS-AP WIZ K.K., JP
104.171.242.116|26827|104.171.240.0/20|US|arin|2014-09-23|EPBTELECOM, US
108.168.125.57|40788|108.168.0.0/17|CA|arin|2011-12-29|START-, CA
108.4.213.39|701|108.4.192.0/18|US|arin|2009-06-05|UUNET, US
109.238.46.186|15935|109.238.32.0/20|CZ|ripencc|2010-01-20|HA-VEL-LOCAL-AS Czech republic, CZ
109.254.56.32|20590|109.254.32.0/19|UA|ripencc|2009-12-10|DEC-AS, UA
111.90.140.207|45839|111.90.140.0/24|MY|apnic|2009-06-17|SHINJIRU-MY-AS-AP Shinjiru Technology Sdn Bhd, MY
12.191.193.202|7018|12.128.0.0/9|US|arin|1983-08-23|ATT-INTERNET4, US
121.196.12.93|37963|121.196.0.0/16|CN|apnic|2007-09-18|CNNIC-ALIBABA-CN-NET-AP Hangzhou Alibaba Advertising Co.,Ltd., CN
128.197.189.187|111|128.197.0.0/16|US|arin|1987-02-04|BOSTONU-AS, US
13.48.25.119|16509|13.48.0.0/15|US|arin|2020-08-05|AMAZON-02, US
13.48.71.240|16509|13.48.0.0/15|US|arin|2020-08-05|AMAZON-02, US
137.119.52.140|22191|137.119.48.0/20|US|arin|1989-11-21|WILKES-COMM, US
143.59.79.44|12083|143.59.0.0/16|US|arin|2018-04-27|WOW-INTERNET, US
147.229.146.52|197451|147.229.128.0/18|CZ|ripencc|1993-01-11|VUTBR-AS, CZ
151.20.160.72|1267|151.20.0.0/16|IT|ripencc|1991-05-13|ASN-WINDTRE IUNET, IT
154.86.129.169|134548|154.86.128.0/23|SC|afrinic|2013-07-24|DXTL-HK DXTL Tseung Kwan O Service, HK
157.175.74.249|16509|157.175.0.0/16|US|arin|2017-12-28|AMAZON-02, US
162.156.23.202|852|162.156.0.0/16|CA|arin|2013-03-07|ASN852, CA
162.250.189.53|26832|162.250.188.0/22|CA|arin|2013-12-26|RICAWEBSERVICES, CA
174.59.222.27|7922|174.48.0.0/12|US|arin|2008-11-18|COMCAST-7922, US
176.196.98.66|39927|176.196.0.0/15|RU|ripencc|2011-07-15|ELIGHT-AS, RU
176.21.161.80|3292|176.20.0.0/14|DK|ripencc|2011-05-19|TDC TDC A/S, DK
176.9.104.69|24940|176.9.0.0/16|DE|ripencc|2011-05-17|HETZNER-AS, DE
178.128.17.153|14061|178.128.16.0/20|US|ripencc|2010-03-03|DIGITALOCEAN-ASN, US
178.236.87.138|42560|178.236.80.0/20|BA|ripencc|2010-06-02|BA-TELEMACH-AS Telemach d.o.o. Sarajevo, BA
178.79.138.62|63949|178.79.128.0/18|US|ripencc|2010-05-10|LINODE-AP Linode, LLC, US
18.177.144.21|16509|18.176.0.0/15|US|arin|2019-10-07|AMAZON-02, US
18.222.167.188|16509|18.220.0.0/14|US|arin|2019-10-07|AMAZON-02, US
185.152.228.83|197784|185.152.228.0/22|SE|ripencc|2016-05-20|EDGEIP-AS, SE
185.153.196.240|49877|185.153.196.0/22|RU|ripencc|2016-05-24|RMINJINERING, RU
185.155.96.203|202759|185.155.96.0/24|EE|ripencc|2016-06-08|WHS, EE
185.209.70.17|204568|185.209.70.0/23|PL|ripencc|2017-06-20|PIKOL-AS, PL
185.238.129.113|206238|185.238.128.0/22|NL|ripencc|2017-12-22|FREEDOMINTERNET, NL
185.252.84.122|204341|185.252.84.0/22|BZ|ripencc|2018-03-27|PR-AS, BZ
185.4.24.199|201508|185.4.24.0/22|GB|ripencc|2012-09-25|PUREBROADBAND, GB
185.64.116.15|31736|185.64.116.0/22|CH|ripencc|2014-07-21|SENSELAN-AS senseLAN GmbH, CH
185.78.209.28|202128|185.78.208.0/22|NO|ripencc|2014-11-25|FJORDANE-IT, NO
193.169.244.190|42159|193.169.244.0/23|UA|ripencc|2009-08-13|DELTAHOST-AS, UA
193.29.13.84|42397|193.29.13.0/24|RO|ripencc|2018-04-25|***************************************, RO
194.106.99.119|3249|194.106.96.0/19|EE|ripencc|1995-12-04|ESTPAK, EE
194.14.246.205|50066|194.14.246.0/24|SE|ripencc|1993-12-09|SRSTUBES-AS, SE
195.204.173.39|2116|195.204.0.0/16|NO|ripencc|1996-07-10|ASN-CATCHCOM, NO
197.83.231.35|10474|197.83.0.0/16|ZA|afrinic|2015-12-09|OPTINET, ZA
199.182.184.204|27223|199.182.184.0/22|US|arin|2012-04-23|LOATHING, US
199.195.253.39|53667|199.195.248.0/21|US|arin|2012-06-06|PONYNET, US
199.247.249.188|18988|199.247.240.0/20|CA|arin|2017-06-07|CITYWEST-CORP, CA
199.68.199.19|1426|199.68.196.0/22|US|arin|2011-01-10|LIGHTWAVENET, US
2.200.83.123|3209|2.200.0.0/14|DE|ripencc|2010-11-18|VODANET International IP-Backbone of Vodafone, DE
201.14.128.223|8167|201.14.128.0/18|BR|lacnic|2004-07-08|Brasil Telecom S/A - Filial Distrito Federal, BR
202.239.42.192|4694|202.239.32.0/19|JP|apnic|1995-03-29|IDCF IDC Frontier Inc., JP
207.251.84.210|8002|207.251.64.0/18|US|arin|1999-04-12|STEALTH, US
207.253.27.72|395075|207.253.27.0/24|CA|arin|1996-11-22|AS-COPR, CA
212.227.39.1|8560|212.227.0.0/16|DE|ripencc|1998-09-10|IONOS-AS This is the joint network for IONOS, Fasthosts, Arsys, 1&1 Mail and Media and 1&1 Telecom. Formerly known as 1&1 Internet SE., DE
212.97.48.5|5602|212.97.32.0/19|IT|ripencc|1999-06-29|AS-IRIDEOS-KP, IT
213.145.110.75|9070|213.145.110.0/24|BG|ripencc|2002-08-02|COOOLBOX, BG
216.74.32.109|20021|216.74.32.0/20|US|arin|1998-09-15|LNH-INC, US
23.238.48.248|54290|23.238.48.0/23|US|arin|2013-10-07|HOSTWINDS, US
3.126.209.33|16509|3.124.0.0/14|US|arin|2017-12-20|AMAZON-02, US
3.21.232.168|16509|3.20.0.0/14|US|arin|2017-12-20|AMAZON-02, US
3.227.11.183|14618|3.224.0.0/12|US|arin|2018-06-25|AMAZON-AES, US
3.234.251.85|14618|3.224.0.0/12|US|arin|2018-06-25|AMAZON-AES, US
3.248.223.135|16509|3.248.0.0/13|US|arin|2018-06-25|AMAZON-02, US
31.179.204.142|201046|31.179.204.0/24|PL|ripencc|2011-03-22|TRAFCOM_NET, PL
34.203.199.245|14618|34.192.0.0/12|US|arin|2016-09-12|AMAZON-AES, US
34.87.160.111|15169|34.84.0.0/14|US|arin|2018-09-28|GOOGLE, US
45.63.19.179|20473|45.63.16.0/21|US|arin|2015-01-02|AS-CHOOPA, US
46.166.151.160|43350|46.166.144.0/21|NL|ripencc|2010-12-16|NFORCE, NL
47.254.89.235|45102|47.254.88.0/21|US|arin|2016-04-15|CNNIC-ALIBABA-US-NET-AP Alibaba (US) Technology Co., Ltd., CN
47.89.246.51|45102|47.89.244.0/22|US|arin|2015-05-18|CNNIC-ALIBABA-US-NET-AP Alibaba (US) Technology Co., Ltd., CN
5.135.140.215|16276|5.135.0.0/16|FR|ripencc|2012-07-06|OVH, FR
5.135.154.68|16276|5.135.0.0/16|FR|ripencc|2012-07-06|OVH, FR
5.135.177.202|16276|5.135.0.0/16|FR|ripencc|2012-07-06|OVH, FR
5.135.179.60|16276|5.135.0.0/16|FR|ripencc|2012-07-06|OVH, FR
5.188.56.53|49505|5.188.56.0/22|RU|ripencc|2012-08-09|SELECTEL, RU
5.45.104.77|197540|5.45.96.0/20|DE|ripencc|2012-05-24|NETCUP-AS netcup GmbH, DE
5.61.50.213|58061|5.61.48.0/22|GB|ripencc|2012-06-07|SCALAXY-AS, NL
5.9.16.76|24940|5.9.0.0/16|DE|ripencc|2012-04-25|HETZNER-AS, DE
5.9.233.203|24940|5.9.0.0/16|DE|ripencc|2012-04-25|HETZNER-AS, DE
51.175.152.204|29695|51.174.0.0/15|NO|ripencc|1993-09-01|ALTIBOX_AS Norway, NO
52.79.99.2|16509|52.79.64.0/18|US|arin|1991-12-19|AMAZON-02, US
54.238.129.38|16509|54.238.128.0/17|US|arin|2012-03-01|AMAZON-02, US
54.251.65.228|16509|54.251.64.0/18|US|arin|2012-03-01|AMAZON-02, US
59.129.144.136|2516|59.129.0.0/16|JP|apnic|2004-10-19|KDDI KDDI CORPORATION, JP
62.13.193.206|15498|62.13.192.0/21|AT|ripencc|2000-07-04|RTCNOW RTCnow Streaming Services GmbH, AT
62.138.162.12|20773|62.138.128.0/18|DE|ripencc|2000-09-19|GODADDY, DE
62.171.186.166|51167|62.171.186.0/23|DE|ripencc|2000-08-18|CONTABO, DE
63.80.184.72|16578|63.80.184.0/24|US|arin|1999-01-22|DATANOC, US
65.26.224.48|10796|65.26.192.0/18|US|arin|2000-08-22|TWC-10796-MIDWEST, US
68.168.176.51|10242|68.168.160.0/19|US|arin|2009-05-05|USINTERNET, US
70.59.123.25|209|70.59.112.0/20|US|arin|2004-06-18|CENTURYLINK-US-LEGACY-QWEST, US
72.250.184.57|33501|72.250.184.0/24|US|arin|2008-06-25|MTDIGITAL, US
74.102.136.132|701|74.102.0.0/16|US|arin|2009-01-26|UUNET, US
77.185.2.17|6805|77.176.0.0/12|DE|ripencc|2006-11-17|TDDE-ASN1, DE
77.242.84.34|41046|77.242.80.0/20|CZ|ripencc|2007-02-27|NEJTV-AS, CZ
77.56.5.67|6830|77.56.0.0/15|CH|ripencc|2006-10-19|LIBERTYGLOBAL Liberty Global (formerly UPC Broadband Holding, aka AORTA), NL
78.46.79.17|24940|78.46.0.0/15|DE|ripencc|2007-04-16|HETZNER-AS, DE
79.120.70.47|12714|79.120.0.0/17|RU|ripencc|2007-07-05|TI-AS Moscow, Russia, RU
8.210.194.45|45102|8.210.128.0/17|SG|apnic|1992-12-01|CNNIC-ALIBABA-US-NET-AP Alibaba (US) Technology Co., Ltd., CN
81.183.235.207|5483|81.182.0.0/15|HU|ripencc|2003-02-05|MAGYAR-TELEKOM-MAIN-AS Magyar Telekom Nyrt., HU
82.121.67.105|3215|82.121.0.0/17|FR|ripencc|2003-10-21|France Telecom - Orange, FR
82.207.198.53|8881|82.207.192.0/19|DE|ripencc|2003-12-02|VERSATEL, DE
83.151.238.65|51918|83.151.236.0/22|GB|ripencc|2004-03-30|CERBERUSNETWORKS-AS, GB
83.85.139.94|33915|83.84.0.0/14|NL|ripencc|2003-11-28|TNF-AS, NL
84.234.203.35|29695|84.234.128.0/17|NO|ripencc|2004-06-11|ALTIBOX_AS Norway, NO
85.208.71.19|42275|85.208.71.0/24|FR|ripencc|2019-02-21|THREEFOURTEEN, FR
89.234.235.64|41006|89.234.232.0/21|PL|ripencc|2006-05-24|IDC-ASN, PL
90.146.208.162|12605|90.146.128.0/17|AT|ripencc|2006-11-23|LIWEST-AT Linz, Austria, AT
91.126.234.159|35699|91.126.232.0/21|ES|ripencc|2006-10-24|ADAMOEU-AS Adamo Telecom Iberia S.A., ES
93.180.178.213|30793|93.180.160.0/19|PL|ripencc|2012-09-06|ISTS-, PL
94.101.125.50|12357|94.101.124.0/22|ES|ripencc|2018-08-27|COMUNITEL SPAIN, ES
94.26.49.71|48452|94.26.49.0/24|BG|ripencc|2008-06-11|TRAFFIC-NET, BG
95.216.21.47|24940|95.216.0.0/16|DE|ripencc|2009-02-24|HETZNER-AS, DE
95.217.96.82|24940|95.217.0.0/16|DE|ripencc|2009-02-24|HETZNER-AS, DE
96.79.125.33|7922|96.64.0.0/11|US|arin|2008-02-21|COMCAST-7922, US
