# bitcoin dns seeds and whois results
IP Address|ASN|BGP Prefix|CC|Registry|Allocated|AS Name
104.155.87.142|15169|104.155.64.0/19|US|arin|2014-07-09|GOOGLE, US
104.248.246.94|14061|104.248.240.0/20|US|arin|2018-08-06|DIGITALOCEAN-ASN, US
104.4.56.233|7018|104.0.0.0/12|US|arin|2014-01-16|ATT-INTERNET4, US
116.109.199.127|7552|116.109.192.0/21|VN|apnic|2007-05-18|VIETEL-AS-AP Viettel Group, VN
128.92.131.61|20115|128.92.128.0/20|US|arin|2017-06-15|CHARTER-20115, US
129.13.189.212|34878|129.13.0.0/16|DE|ripencc|1987-06-29|KIT Karlsruhe Institute of Technology, DE
134.122.26.164|14061|134.122.16.0/20|US|arin|2019-09-06|DIGITALOCEAN-ASN, US
136.35.54.2|16591|136.35.48.0/20|US|arin|2015-10-06|GOOGLE-FIBER, US
138.229.26.42|22423|138.229.16.0/20|CA|arin|2014-05-06|ALTIMA-TELECOM, CA
143.110.157.215|14061|143.110.144.0/20|US|arin|2020-01-17|DIGITALOCEAN-ASN, US
143.110.159.19|14061|143.110.144.0/20|US|arin|2020-01-17|DIGITALOCEAN-ASN, US
143.110.240.88|14061|143.110.240.0/20|US|arin|2020-01-17|DIGITALOCEAN-ASN, US
147.135.136.53|16276|147.135.128.0/17|FR|ripencc|2017-03-22|OVH, FR
15.185.204.163|16509|15.185.0.0/16|US|arin|2021-01-28|AMAZON-02, US
161.97.174.243|51167|161.97.160.0/20|DE|ripencc|1992-06-23|CONTABO, DE
167.172.254.185|14061|167.172.240.0/20|US|ripencc|1993-08-30|DIGITALOCEAN-ASN, US
168.119.89.99|24940|168.119.0.0/16|DE|ripencc|1994-04-05|HETZNER-AS, DE
174.65.18.185|22773|174.65.0.0/16|US|arin|2009-02-19|ASN-CXA-ALL-CCI-22773-RDC, US
176.74.136.237|35613|176.74.128.0/19|CZ|ripencc|2011-06-15|NETDATACOMM, CZ
178.162.210.17|28753|178.162.192.0/18|DE|ripencc|2010-02-05|LEASEWEB-DE-FRA-10, DE
178.20.100.35|45012|178.20.100.0/22|DE|ripencc|2010-02-22|CLOUDPIT, DE
178.236.87.138|42560|178.236.80.0/20|BA|ripencc|2010-06-02|BA-TELEMACH-AS Telemach d.o.o. Sarajevo, BA
178.238.123.43|29226|178.238.112.0/20|RU|ripencc|2010-07-16|MASTERTEL-AS Moscow, Russia, RU
18.166.52.198|16509|18.166.0.0/15|US|arin|2019-10-07|AMAZON-02, US
180.215.214.88|64050|180.215.214.0/24|SG|apnic|2009-10-01|BCPL-SG BGPNET Global ASN, SG
186.32.212.112|262197|186.32.212.0/23|CR|lacnic|2011-06-24|MILLICOM CABLE COSTA RICA S.A., CR
186.50.42.239|6057|186.50.32.0/20|UY|lacnic|2009-09-03|Administracion Nacional de Telecomunicaciones, UY
188.134.8.36|41733|188.134.0.0/17|RU|ripencc|2009-04-27|ZTELECOM-AS, RU
188.155.216.38|6730|188.154.0.0/15|CH|ripencc|2009-05-08|SUNRISE, CH
188.166.250.107|14061|188.166.240.0/20|US|ripencc|2009-06-05|DIGITALOCEAN-ASN, US
188.26.196.193|57269|188.26.192.0/21|RO|ripencc|2009-02-11|DIGISPAINTELECOM, ES
188.37.190.74|12353|188.37.0.0/16|PT|ripencc|2010-01-07|VODAFONE-PT Vodafone Portugal, PT
193.219.38.56|2847|193.219.32.0/21|LT|ripencc|1994-04-01|LITNET, LT
194.219.107.51|1241|194.219.0.0/17|GR|ripencc|1995-12-20|FORTHNET-GR Forthnet, EU
195.123.245.175|204957|195.123.244.0/22|BG|ripencc|1997-04-04|GREENFLOID-AS, BG
195.154.187.6|12876|195.154.0.0/16|FR|ripencc|1996-08-27|Online SAS, FR
199.247.7.208|20473|199.247.0.0/21|US|ripencc|1996-04-09|AS-CHOOPA, US
2.30.237.239|12576|2.30.0.0/16|GB|ripencc|2010-09-21|EE Ltd, GB
201.252.68.35|7303|201.252.64.0/21|AR|lacnic|2004-06-01|Telecom Argentina S.A., AR
203.132.94.196|38195|203.132.94.0/24|AU|apnic|2007-04-11|SUPERLOOP-AS-AP Superloop, AU
203.184.55.57|9790|203.184.0.0/18|NZ|apnic|2004-06-02|VOCUSGROUPNZ VocusGroup, NZ
205.196.146.100|16842|205.196.146.0/24|US|arin|2004-03-26|5DL-AS, US
206.252.192.9|8002|206.252.192.0/19|US|arin|1996-08-12|STEALTH, US
207.180.227.204|51167|207.180.226.0/23|DE|ripencc|1996-08-21|CONTABO, DE
207.254.73.148|395337|207.254.72.0/22|US|arin|2016-02-08|MACST-VEGAS, US
208.73.156.62|40447|208.73.156.0/22|US|arin|2017-02-08|SKYHAWK-GROUP, US
212.51.146.9|13030|212.51.144.0/20|CH|ripencc|2008-05-06|INIT7, CH
212.8.250.141|49981|212.8.250.0/24|NL|ripencc|1999-09-22|WORLDSTREAM, NL
212.9.185.194|12374|212.9.160.0/19|DE|ripencc|1999-04-09|LFNET-AS01, DE
213.159.199.54|44845|213.159.199.0/24|RU|ripencc|2008-03-18|CIT, RU
213.186.116.216|6849|213.186.112.0/20|UA|ripencc|2002-12-04|UKRTELNET, UA
213.239.196.9|24940|213.239.192.0/18|DE|ripencc|2003-05-28|HETZNER-AS, DE
216.239.71.133|10996|216.239.64.0/19|CA|arin|2000-11-22|CONCORDE, CA
23.226.90.172|62727|23.226.80.0/20|US|arin|2013-09-12|PLEXICOMM, US
24.237.96.82|8047|24.237.0.0/16|US|arin|1997-10-14|GCI, US
3.235.183.74|14618|3.224.0.0/12|US|arin|2018-06-25|AMAZON-AES, US
3.88.181.72|14618|3.80.0.0/12|US|arin|2017-12-20|AMAZON-AES, US
3.96.126.235|16509|3.96.0.0/15|US|arin|2017-12-20|AMAZON-02, US
34.218.45.5|16509|34.208.0.0/12|US|arin|2016-09-12|AMAZON-02, US
34.78.14.25|15169|34.76.0.0/14|US|arin|2018-09-28|GOOGLE, US
34.85.35.125|15169|34.84.0.0/14|US|arin|2018-09-28|GOOGLE, US
34.96.170.247|15169|34.96.128.0/17|US|arin|2018-09-28|GOOGLE, US
35.180.187.229|16509|35.180.0.0/16|US|arin|2016-08-09|AMAZON-02, US
35.195.212.194|15169|35.192.0.0/14|US|arin|2017-03-21|GOOGLE, US
35.200.167.38|15169|35.200.0.0/14|US|arin|2017-03-21|GOOGLE, US
35.200.97.57|15169|35.200.0.0/14|US|arin|2017-03-21|GOOGLE, US
35.204.253.254|15169|35.204.0.0/15|US|arin|2017-03-21|GOOGLE, US
35.235.89.230|15169|35.232.0.0/14|US|arin|2017-09-29|GOOGLE, US
35.243.99.49|15169|35.240.0.0/14|US|arin|2017-09-29|GOOGLE, US
37.143.116.43|48926|37.143.112.0/21|CZ|ripencc|2012-03-02|PE3NY-AS, CZ
37.191.243.119|57963|37.191.128.0/17|NO|ripencc|2012-03-21|LYNET-INTERNETT-AS, NO
45.115.71.35|134139|45.115.68.0/22|AU|apnic|2015-04-16|HARBOURISPPTYLTD-AS-AP Harbour ISP Pty LTD, AU
45.130.58.202|43915|45.130.56.0/22|GB|ripencc|2019-07-17|TRUESPEED, GB
45.32.232.25|20473|45.32.232.0/21|US|arin|2015-02-17|AS-CHOOPA, US
46.132.186.177|1759|46.132.0.0/16|FI|ripencc|2010-10-20|TSF-IP-CORE Telia Finland Oyj, FI
46.165.254.247|28753|46.165.192.0/18|DE|ripencc|2010-12-13|LEASEWEB-DE-FRA-10, DE
47.115.53.163|37963|47.115.0.0/17|CN|apnic|1989-01-06|CNNIC-ALIBABA-CN-NET-AP Hangzhou Alibaba Advertising Co.,Ltd., CN
47.156.145.43|5650|47.156.0.0/16|US|arin|2015-08-28|FRONTIER-FRTR, US
47.75.59.41|45102|47.75.0.0/17|US|arin|2016-03-17|CNNIC-ALIBABA-US-NET-AP Alibaba (US) Technology Co., Ltd., CN
5.58.9.231|16223|5.58.0.0/17|UA|ripencc|2012-06-01|LANET-TE, UA
5.9.120.188|24940|5.9.0.0/16|DE|ripencc|2012-04-25|HETZNER-AS, DE
51.159.57.157|12876|51.158.0.0/15|FR|ripencc|1993-09-01|Online SAS, FR
52.14.39.185|16509|52.14.0.0/16|US|arin|1991-12-19|AMAZON-02, US
54.158.70.15|14618|54.156.0.0/14|US|arin|2014-10-23|AMAZON-AES, US
54.180.137.207|16509|54.180.0.0/15|US|arin|2014-10-23|AMAZON-02, US
54.69.215.211|16509|54.68.0.0/15|US|arin|2014-06-20|AMAZON-02, US
58.158.0.86|17506|58.158.0.0/16|JP|apnic|2005-07-26|UCOM ARTERIA Networks Corporation, JP
62.141.50.135|31103|62.141.48.0/20|DE|ripencc|2002-08-28|KEYWEB-AS, DE
64.52.25.249|395570|64.52.24.0/21|US|arin|2000-03-06|FIBRESTREAM, CA
64.98.72.92|32133|64.98.64.0/20|CA|arin|2000-05-18|AS-TING-BACKBONE, US
66.115.219.87|13576|66.115.192.0/18|US|arin|2002-12-20|SDNW-13576, US
66.18.172.21|11711|66.18.160.0/20|US|arin|2004-03-03|TULAROSA-COMMUNICATIONS, US
66.208.64.128|10352|66.208.64.0/20|US|arin|2006-04-17|WCTC, US
67.197.104.195|14615|67.197.64.0/18|US|arin|2007-09-20|ROCK-HILL-TELEPHONE, US
77.116.96.246|25255|77.116.0.0/14|AT|ripencc|2007-01-10|H3G-AUSTRIA-AS ==) TELE2 AUSTRIA (==, AT
78.46.79.17|24940|78.46.0.0/15|DE|ripencc|2007-04-16|HETZNER-AS, DE
79.136.94.13|8473|79.136.0.0/17|SE|ripencc|2007-09-27|BAHNHOF http://www.bahnhof.net/, SE
81.224.160.81|3301|81.224.0.0/12|SE|ripencc|2002-10-04|TELIANET-SWEDEN Telia Company, SE
81.7.10.251|35366|81.7.0.0/19|DE|ripencc|2009-09-18|ISPPRO-AS ISPPRO-AS covers the networks of ISPpro, DE
81.7.17.202|35366|81.7.0.0/19|DE|ripencc|2009-09-18|ISPPRO-AS ISPPRO-AS covers the networks of ISPpro, DE
82.202.167.201|29182|82.202.166.0/23|RU|ripencc|2003-10-06|THEFIRST-AS, RU
85.17.25.69|60781|85.17.0.0/16|NL|ripencc|2005-03-11|LEASEWEB-NL-AMS-01 Netherlands, NL
85.212.96.160|12312|85.212.64.0/18|DE|ripencc|2005-02-22|ECOTEL, DE
86.14.0.69|5089|86.14.0.0/15|GB|ripencc|2005-03-29|NTL, GB
87.247.111.222|21412|87.247.64.0/18|LT|ripencc|2005-09-06|CGATES-AS, LT
87.75.105.186|25310|87.74.0.0/15|GB|ripencc|2005-05-11|ASN-CWACCESS, GB
88.247.143.224|47331|88.247.140.0/22|TR|ripencc|2005-10-27|TTNET, TR
88.82.181.44|39178|88.82.180.0/22|RU|ripencc|2005-12-22|OPTILINK-AS, RU
88.86.243.241|48432|88.86.240.0/20|FR|ripencc|2006-02-15|SCGS-AS, FR
91.239.130.62|62240|91.239.130.0/24|GB|ripencc|2019-11-12|CLOUVIDER Clouvider - Global ASN, GB
91.93.183.195|34984|91.93.183.0/24|TR|ripencc|2006-08-24|TELLCOM-AS, TR
92.127.236.21|12389|92.127.128.0/17|RU|ripencc|2008-05-22|ROSTELECOM-AS, RU
93.177.73.226|9009|93.177.73.0/24|RO|ripencc|2018-11-22|M247, GB
93.189.145.169|12555|93.189.144.0/21|RU|ripencc|2008-05-02|IMAQLIQ https://iqdata.center, RU
93.89.84.93|39326|93.89.80.0/20|GB|ripencc|2008-04-03|HSO-GROUP, GB
95.170.88.58|20857|95.170.64.0/19|NL|ripencc|2009-02-03|TRANSIP-AS Amsterdam, the Netherlands, NL
96.47.114.108|397122|96.47.112.0/20|US|arin|2009-11-17|NORVADO-NET, US
