# bitcoin dns seeds and whois results
IP Address|ASN|BGP Prefix|CC|Registry|Allocated|AS Name
103.9.174.70|55905|103.9.174.0/24|JP|apnic|2012-05-18|COMZNET2 TOP CLOUD Inc., JP
104.171.242.116|26827|104.171.240.0/20|US|arin|2014-09-23|EPBTELECOM, US
109.110.81.90|35816|109.110.64.0/19|RU|ripencc|2009-11-19|SEVSTAR Sevastopol, Russia, RU
109.236.91.15|49981|109.236.80.0/20|NL|ripencc|2009-12-04|WORLDSTREAM, NL
121.6.251.11|9506|121.6.128.0/17|SG|apnic|2006-05-23|SINGTEL-FIBRE Singtel Fibre Broadband, SG
124.114.200.186|4134|124.114.0.0/15|CN|apnic|2006-03-31|CHINANET-BACKBONE No.31,Jin-rong Street, CN
13.210.184.202|16509|13.210.0.0/15|US|arin|2019-10-01|AMAZON-02, US
13.229.150.245|16509|13.228.0.0/15|US|arin|2019-10-01|AMAZON-02, US
13.244.108.188|16509|13.244.0.0/15|US|arin|2018-07-11|AMAZON-02, US
134.101.155.13|15943|134.101.128.0/17|DE|ripencc|1989-05-22|WTNET-AS wilhelm.tel GmbH, DE
135.180.49.219|46375|135.180.0.0/16|US|arin|2013-05-10|AS-SONICTELECOM, US
136.55.36.157|16591|136.55.32.0/20|US|arin|2015-10-06|GOOGLE-FIBER, US
138.68.93.86|14061|138.68.80.0/20|US|arin|2016-01-26|DIGITALOCEAN-ASN, US
139.178.69.251|54825|139.178.68.0/22|US|ripencc|1990-03-26|PACKET, US
140.112.42.98|17716|140.112.0.0/16|TW|apnic|1990-03-24|NTU-TW National Taiwan University, TW
144.76.92.36|24940|144.76.0.0/16|DE|ripencc|1990-11-16|HETZNER-AS, DE
145.90.90.231|1103|145.90.0.0/16|NL|ripencc|1993-09-01|SURFNET-NL SURFnet, The Netherlands, NL
154.85.58.254|55967|154.85.56.0/21|SC|afrinic|2013-07-24|BAIDU Beijing Baidu Netcom Science and Technology Co., Ltd., CN
161.35.225.155|14061|161.35.224.0/20|US|arin|2019-07-30|DIGITALOCEAN-ASN, US
162.250.189.53|26832|162.250.188.0/22|CA|arin|2013-12-26|RICAWEBSERVICES, CA
163.172.31.79|12876|163.172.0.0/16|GB|ripencc|1992-02-14|Online SAS, FR
167.71.59.56|14061|167.71.48.0/20|US|arin|2019-04-24|DIGITALOCEAN-ASN, US
168.119.158.57|24940|168.119.0.0/16|DE|ripencc|1994-04-05|HETZNER-AS, DE
173.212.241.77|51167|173.212.240.0/21|DE|ripencc|2009-10-26|CONTABO, DE
176.10.65.135|56571|176.10.65.0/24|ES|ripencc|2011-05-18|CABLEX, ES
178.236.87.138|42560|178.236.80.0/20|BA|ripencc|2010-06-02|BA-TELEMACH-AS Telemach d.o.o. Sarajevo, BA
18.220.171.207|16509|18.220.0.0/14|US|arin|2019-10-07|AMAZON-02, US
18.27.79.17|3|18.27.0.0/16|US|arin|1994-01-01|MIT-GATEWAYS, US
181.170.163.206|10318|181.170.160.0/19|AR|lacnic|2013-05-14|Telecom Argentina S.A., AR
181.52.220.38|10620|181.52.220.0/22|CO|lacnic|2011-05-02|Telmex Colombia S.A., CO
185.152.138.74|6697|185.152.136.0/22|BY|ripencc|2016-05-18|BELPAK-AS BELPAK, BY
185.167.163.103|42159|185.167.160.0/22|UA|ripencc|2016-09-13|DELTAHOST-AS, UA
185.180.196.143|14576|185.180.196.0/24|NL|ripencc|2016-12-06|HOSTING-SOLUTIONS, US
185.210.224.102|49432|185.210.224.0/24|AT|ripencc|2017-06-29|SCHALLERT-AS schallert.com e.U., AT
185.230.81.96|205099|185.230.80.0/22|IT|ripencc|2017-11-07|DOLOMITESNETWORK-AS, IT
185.81.166.77|62282|185.81.164.0/22|LT|ripencc|2014-12-17|RACKRAY UAB Rakrejus, LT
188.121.252.236|29075|188.121.224.0/19|FR|ripencc|2009-05-13|IELO IELO Main Network, FR
188.155.218.95|6730|188.154.0.0/15|CH|ripencc|2009-05-08|SUNRISE, CH
188.166.246.32|14061|188.166.240.0/20|US|ripencc|2009-06-05|DIGITALOCEAN-ASN, US
188.166.249.211|14061|188.166.240.0/20|US|ripencc|2009-06-05|DIGITALOCEAN-ASN, US
188.68.45.143|197540|188.68.32.0/20|DE|ripencc|2009-08-25|NETCUP-AS netcup GmbH, DE
192.146.137.18|57672|192.146.137.0/24|GB|ripencc|2012-01-06|DJA-ASN, GB
192.3.11.20|36352|192.3.0.0/20|US|arin|2013-06-07|AS-COLOCROSSING, US
192.42.253.213|200303|192.42.253.0/24|CH|ripencc|2019-11-12|LUMASERV LUMASERV Systems, DE
193.111.156.2|24881|193.111.156.0/22|UA|ripencc|2002-04-25|INTERPHONE-AS, UA
193.84.116.22|2852|193.84.116.0/23|CZ|ripencc|1993-09-01|CESNET2, CZ
206.81.24.91|14061|206.81.16.0/20|US|arin|1995-08-11|DIGITALOCEAN-ASN, US
207.115.102.98|11478|207.115.96.0/20|CA|arin|2001-04-06|OPENFACE, CA
209.236.228.26|21554|209.236.224.0/20|US|arin|2003-01-03|CYBERLYNK, US
212.19.14.26|8749|212.19.0.0/19|RU|ripencc|1998-03-23|REDCOM-AS Redcom, Khabarovsk, Russia, RU
212.34.225.118|44395|212.34.224.0/19|AM|ripencc|2009-04-23|ORG-UL31-RIPE, AM
213.10.181.49|1136|213.10.0.0/16|NL|ripencc|1999-09-20|KPN KPN National, NL
217.145.94.94|20665|217.145.80.0/20|BG|ripencc|2004-04-06|VARNANET-AS, BG
220.84.76.77|4766|220.80.0.0/13|KR|apnic|2002-08-29|KIXS-AS-KR Korea Telecom, KR
222.186.150.130|23650|222.186.150.0/24|CN|apnic|2004-02-23|CHINANET-JIANGSU-PROVINCE-IDC AS Number for CHINANET jiangsu province backbone, CN
222.222.43.29|4134|222.222.0.0/15|CN|apnic|2004-04-28|CHINANET-BACKBONE No.31,Jin-rong Street, CN
24.205.215.192|20115|24.205.208.0/20|US|arin|2001-06-01|CHARTER-20115, US
3.112.173.12|16509|3.112.0.0/14|US|arin|2017-12-20|AMAZON-02, US
3.112.50.156|16509|3.112.0.0/14|US|arin|2017-12-20|AMAZON-02, US
3.124.38.47|16509|3.124.0.0/14|US|arin|2017-12-20|AMAZON-02, US
31.42.188.74|50673|31.42.188.0/23|UA|ripencc|2011-02-23|SERVERIUS-AS, NL
34.83.108.62|15169|34.80.0.0/14|US|arin|2018-09-28|GOOGLE, US
35.198.155.181|15169|35.198.0.0/16|US|arin|2017-03-21|GOOGLE, US
35.204.137.151|15169|35.204.0.0/15|US|arin|2017-03-21|GOOGLE, US
35.212.168.144|15169|35.212.128.0/17|US|arin|2017-09-29|GOOGLE, US
35.226.225.177|15169|35.224.0.0/14|US|arin|2017-09-29|GOOGLE, US
35.231.113.167|15169|35.228.0.0/14|US|arin|2017-09-29|GOOGLE, US
35.234.19.151|15169|35.232.0.0/14|US|arin|2017-09-29|GOOGLE, US
35.246.216.185|15169|35.244.0.0/14|US|arin|2017-09-29|GOOGLE, US
40.78.19.149|8075|40.76.0.0/14|US|arin|2015-02-23|MICROSOFT-CORP-MSN-AS-BLOCK, US
41.112.163.11|16637|41.112.0.0/12|ZA|afrinic|2009-04-22|MTNNS-AS, ZA
45.151.125.239|212663|45.151.125.0/24|PL|ripencc|2019-09-10|REMOTE-ADMIN-AS, PL
46.165.254.247|28753|46.165.192.0/18|DE|ripencc|2010-12-13|LEASEWEB-DE-FRA-10, DE
46.48.126.58|12668|46.48.0.0/17|RU|ripencc|2010-06-22|MIRALOGIC-AS, RU
47.112.122.216|37963|47.112.0.0/16|CN|apnic|1989-01-06|CNNIC-ALIBABA-CN-NET-AP Hangzhou Alibaba Advertising Co.,Ltd., CN
47.115.146.83|37963|47.115.128.0/17|CN|apnic|1989-01-06|CNNIC-ALIBABA-CN-NET-AP Hangzhou Alibaba Advertising Co.,Ltd., CN
47.115.52.118|37963|47.115.0.0/17|CN|apnic|1989-01-06|CNNIC-ALIBABA-CN-NET-AP Hangzhou Alibaba Advertising Co.,Ltd., CN
47.55.144.246|855|47.55.144.0/22|CA|arin|2012-04-09|CANET-ASN-4, CA
5.135.183.211|16276|5.135.0.0/16|FR|ripencc|2012-07-06|OVH, FR
5.188.56.59|49505|5.188.56.0/22|RU|ripencc|2012-08-09|SELECTEL, RU
5.189.184.249|51167|5.189.176.0/20|DE|ripencc|2012-08-09|CONTABO, DE
5.196.81.99|16276|5.196.0.0/16|FR|ripencc|2012-08-23|OVH, FR
5.45.74.24|58061|5.45.72.0/22|GB|ripencc|2012-05-24|SCALAXY-AS, NL
5.9.155.54|24940|5.9.0.0/16|DE|ripencc|2012-04-25|HETZNER-AS, DE
51.154.131.18|15796|51.154.0.0/16|CH|ripencc|1993-09-01|SALT-, CH
51.159.56.106|12876|51.158.0.0/15|FR|ripencc|1993-09-01|Online SAS, FR
51.89.235.94|16276|51.89.0.0/16|FR|ripencc|1993-09-01|OVH, FR
52.29.225.255|16509|52.29.0.0/16|US|arin|1991-12-19|AMAZON-02, US
64.250.112.70|23367|64.250.112.0/20|US|arin|2010-11-17|GENADAP, US
64.33.68.176|11232|64.33.64.0/18|US|arin|2016-12-05|MIDCO-NET, US
64.79.104.40|53264|64.79.96.0/20|US|arin|2010-03-05|NCHC-603, US
65.35.192.46|33363|65.35.0.0/16|US|arin|2000-08-22|BHN-33363, US
72.44.79.46|35916|72.44.64.0/20|US|arin|2006-10-30|MULTA-ASN1, US
72.53.134.182|11814|72.53.128.0/20|CA|arin|2005-07-29|DISTRIBUTEL-AS11814, CA
73.22.40.11|7922|73.0.0.0/8|US|arin|2005-04-19|COMCAST-7922, US
77.95.167.127|39449|77.95.160.0/21|IE|ripencc|2007-06-12|FASTCOM-AS, IE
78.159.99.85|28753|78.159.96.0/19|DE|ripencc|2007-09-18|LEASEWEB-DE-FRA-10, DE
79.137.68.161|16276|79.137.0.0/17|FR|ripencc|2007-10-18|OVH, FR
79.143.179.190|51167|79.143.178.0/23|DE|ripencc|2010-01-08|CONTABO, DE
80.100.128.128|3265|80.100.0.0/15|NL|ripencc|2001-07-16|XS4ALL-NL Amsterdam, NL
80.100.161.227|3265|80.100.0.0/15|NL|ripencc|2001-07-16|XS4ALL-NL Amsterdam, NL
80.241.208.108|51167|80.241.208.0/23|DE|ripencc|2011-02-14|CONTABO, DE
81.187.221.177|20712|81.187.0.0/16|GB|ripencc|2003-02-03|AS20712 Andrews & Arnold Ltd, GB
84.254.90.125|8758|84.254.80.0/20|CH|ripencc|2004-10-06|IWAY, CH
84.75.24.54|6830|84.74.0.0/15|CH|ripencc|2004-04-02|LIBERTYGLOBAL Liberty Global (formerly UPC Broadband Holding, aka AORTA), NL
85.2.221.241|3303|85.2.0.0/15|CH|ripencc|2005-01-25|SWISSCOM Swisscom (Switzerland) Ltd, CH
85.214.134.8|6724|85.214.0.0/15|DE|ripencc|2005-02-24|STRATO STRATO AG, DE
88.214.57.95|30823|88.214.57.0/24|DE|ripencc|2018-11-20|COMBAHTON combahton GmbH, DE
89.230.96.42|21021|89.230.0.0/16|PL|ripencc|2006-04-21|MULTIMEDIA-AS Cable DTV Internet Voice Provider in Poland., PL
90.127.100.155|3215|90.127.0.0/16|FR|ripencc|2006-03-02|France Telecom - Orange, FR
91.224.20.71|60562|91.224.20.0/23|IR|ripencc|2019-10-03|BEHDASHT-IT, IR
91.228.155.97|44066|91.228.152.0/22|ES|ripencc|2011-06-01|DE-FIRSTCOLO www.first-colo.net, DE
92.42.110.214|29066|92.42.104.0/21|DE|ripencc|2007-12-14|VELIANET-AS velia.net Internetdienste GmbH, DE
92.43.165.73|25455|92.43.164.0/23|MD|ripencc|2008-01-17|GUARDFOX-AS, MD
93.179.197.152|31242|93.179.192.0/18|PL|ripencc|2008-04-14|TKPSA-AS, PL
95.111.254.160|51167|95.111.254.0/23|DE|ripencc|2008-12-30|CONTABO, DE
95.62.245.223|12430|95.60.0.0/14|ES|ripencc|2008-12-04|VODAFONE_ES, ES
98.37.169.82|7922|98.32.0.0/11|US|arin|2007-06-06|COMCAST-7922, US
99.152.32.222|7018|99.152.0.0/14|US|arin|2007-08-29|ATT-INTERNET4, US
