# bitcoin dns seeds and whois results
IP Address|ASN|BGP Prefix|CC|Registry|Allocated|AS Name
101.32.19.184|132203|101.32.16.0/20|SG|apnic|2010-12-14|TENCENT-NET-AP-CN Tencent Building, Kejizhongyi Avenue, CN
104.218.51.82|19318|104.218.48.0/21|US|arin|2014-10-02|IS-AS-1, US
108.20.207.31|701|108.20.0.0/16|US|arin|2009-06-05|UUNET, US
109.254.56.32|20590|109.254.32.0/19|UA|ripencc|2009-12-10|DEC-AS, UA
124.114.200.186|4134|124.114.0.0/15|CN|apnic|2006-03-31|CHINANET-BACKBONE No.31,Jin-rong Street, CN
128.199.4.104|14061|128.199.0.0/20|GB|ripencc|1999-04-12|DIGITALOCEAN-ASN, US
13.125.202.178|16509|13.125.0.0/16|US|arin|2016-08-09|AMAZON-02, US
13.230.195.20|16509|13.230.0.0/15|US|arin|2019-10-01|AMAZON-02, US
13.53.107.75|16509|13.53.0.0/16|US|arin|2020-08-05|AMAZON-02, US
13.53.133.190|16509|13.53.0.0/16|US|arin|2020-08-05|AMAZON-02, US
13.53.190.249|16509|13.53.0.0/16|US|arin|2020-08-05|AMAZON-02, US
13.71.136.69|8075|13.64.0.0/11|US|arin|2015-03-26|MICROSOFT-CORP-MSN-AS-BLOCK, US
136.55.36.157|16591|136.55.32.0/20|US|arin|2015-10-06|GOOGLE-FIBER, US
142.202.241.37|14315|142.202.240.0/22|US|arin|2019-12-27|1GSERVERS, US
148.251.2.82|24940|148.251.0.0/16|DE|ripencc|1993-09-01|HETZNER-AS, DE
15.161.128.140|16509|15.161.0.0/16|US|arin|2019-12-26|AMAZON-02, US
15.161.246.2|16509|15.161.0.0/16|US|arin|2019-12-26|AMAZON-02, US
152.115.191.196|31027|152.115.128.0/17|DK|ripencc|1991-08-12|GLOBALCONNECT-AS, DK
161.97.97.115|51167|161.97.96.0/23|DE|ripencc|1992-06-23|CONTABO, DE
162.209.4.125|19994|162.209.0.0/18|US|arin|2013-03-26|RACKSPACE, US
163.172.82.118|12876|163.172.0.0/16|GB|ripencc|1992-02-14|Online SAS, FR
167.71.204.250|14061|167.71.192.0/20|US|arin|2019-04-24|DIGITALOCEAN-ASN, US
167.88.20.163|5645|167.88.16.0/20|CA|arin|2014-03-25|TEKSAVVY, CA
173.255.240.205|63949|173.255.240.0/24|US|arin|2010-08-27|LINODE-AP Linode, LLC, US
174.102.64.123|10796|174.102.64.0/18|US|arin|2009-02-26|TWC-10796-MIDWEST, US
176.105.33.148|48683|176.105.0.0/17|UA|ripencc|2012-01-03|BI-LINK-AS, UA
178.19.104.220|59491|178.19.104.0/21|PL|ripencc|2010-05-17|LIVENET-, PL
178.236.87.138|42560|178.236.80.0/20|BA|ripencc|2010-06-02|BA-TELEMACH-AS Telemach d.o.o. Sarajevo, BA
178.252.122.139|42893|178.252.64.0/18|RU|ripencc|2010-05-26|NWLINK-AS, RU
183.77.157.168|4685|183.76.0.0/15|JP|apnic|2009-10-30|ASAHI-NET Asahi Net, JP
184.96.239.116|209|184.96.0.0/16|US|arin|2010-04-06|CENTURYLINK-US-LEGACY-QWEST, US
185.100.84.149|200651|185.100.84.0/23|SC|ripencc|2015-05-15|FLOKINET, SC
185.143.145.113|202302|185.143.145.0/24|UA|ripencc|2016-03-15|NETH-AS, UA
185.143.45.39|55293|185.143.44.0/22|US|ripencc|2016-03-11|A2HOSTING, US
188.134.6.84|41733|188.134.0.0/17|RU|ripencc|2009-04-27|ZTELECOM-AS, RU
188.241.120.48|25369|188.241.120.0/24|GB|ripencc|2009-06-23|BANDWIDTH-AS, GB
188.94.42.24|49375|188.94.40.0/21|GB|ripencc|2009-05-28|AS-TRUNKNETWORKS Trunk Networks - www.trunknetworks.com, GB
190.104.249.44|11014|190.104.249.0/24|AR|lacnic|2012-03-23|CPS, AR
193.33.151.21|42729|193.33.150.0/23|AT|ripencc|2007-04-03|FFGRAZ-NET Wireless community ad-hoc mesh network, AT
195.154.112.155|12876|195.154.0.0/16|FR|ripencc|1996-08-27|Online SAS, FR
195.56.63.4|5588|195.56.0.0/16|HU|ripencc|1996-04-26|GTSCE GTS Central Europe / Antel Germany, CZ
199.182.184.204|27223|199.182.184.0/22|US|arin|2012-04-23|LOATHING, US
2.31.131.21|12576|2.31.0.0/16|GB|ripencc|2010-09-21|EE Ltd, GB
206.189.62.14|14061|206.189.48.0/20|US|arin|1995-11-15|DIGITALOCEAN-ASN, US
208.73.156.62|40447|208.73.156.0/22|US|arin|2017-02-08|SKYHAWK-GROUP, US
209.141.57.57|53667|209.141.32.0/19|US|arin|2011-01-27|PONYNET, US
212.237.100.181|60876|212.237.96.0/20|DK|ripencc|1998-09-25|GIGABIT-, DK
213.124.184.182|33915|213.124.176.0/20|NL|ripencc|1999-09-16|TNF-AS, NL
213.152.106.56|57154|213.152.96.0/19|DE|ripencc|2008-10-10|SWKN Stadtwerke Konstanz GmbH, DE
218.103.184.208|4760|218.103.128.0/18|HK|apnic|2002-03-19|HKTIMS-AP HKT Limited, HK
220.233.178.199|10143|220.233.128.0/18|AU|apnic|2005-04-11|EXETEL-AS-AP Exetel Pty Ltd, AU
27.109.153.99|4609|27.109.128.0/19|MO|apnic|2010-06-10|CTM-MO Companhia de Telecomunicacoes de Macau SARL, MO
3.128.212.89|16509|3.128.0.0/15|US|arin|2018-06-25|AMAZON-02, US
3.129.216.175|16509|3.128.0.0/15|US|arin|2018-06-25|AMAZON-02, US
3.138.122.100|16509|3.136.0.0/13|US|arin|2018-06-25|AMAZON-02, US
31.170.86.245|8887|31.170.64.0/19|SK|ripencc|2011-03-30|TESATEL-AS, SK
34.101.85.110|139190|34.101.0.0/16|US|arin|2018-09-28|GOOGLE-AS-AP Google Asia Pacific Pte. Ltd., SG
34.106.240.178|15169|34.104.0.0/14|US|arin|2018-09-28|GOOGLE, US
34.242.254.154|16509|34.240.0.0/13|US|arin|2016-09-12|AMAZON-02, US
34.64.150.100|139070|34.64.0.0/16|US|arin|2018-09-28|GOOGLE-AS-AP Google Asia Pacific Pte. Ltd., SG
34.70.138.19|15169|34.68.0.0/14|US|arin|2018-09-28|GOOGLE, US
34.75.54.59|15169|34.72.0.0/14|US|arin|2018-09-28|GOOGLE, US
34.86.8.132|15169|34.84.0.0/14|US|arin|2018-09-28|GOOGLE, US
34.86.80.233|15169|34.84.0.0/14|US|arin|2018-09-28|GOOGLE, US
35.181.8.232|16509|35.181.0.0/16|US|arin|2016-08-09|AMAZON-02, US
45.76.32.61|20473|45.76.32.0/21|US|arin|2015-04-24|AS-CHOOPA, US
46.233.31.12|42431|46.233.0.0/19|BG|ripencc|2011-02-21|B-NET, BG
47.196.46.139|5650|47.196.0.0/14|US|arin|2015-08-28|FRONTIER-FRTR, US
49.146.68.65|9299|49.146.64.0/19|PH|apnic|2010-11-22|IPG-AS-AP Philippine Long Distance Telephone Company, PH
5.188.56.51|49505|5.188.56.0/22|RU|ripencc|2012-08-09|SELECTEL, RU
5.79.123.3|60781|5.79.64.0/18|NL|ripencc|2012-06-14|LEASEWEB-NL-AMS-01 Netherlands, NL
50.125.224.3|27017|50.125.128.0/17|US|arin|2011-09-06|ZIPLY-FIBER-LEGACY-ASN, US
50.35.64.236|27017|50.35.0.0/16|US|arin|2010-09-24|ZIPLY-FIBER-LEGACY-ASN, US
51.195.32.4|16276|51.195.0.0/16|FR|ripencc|1993-09-01|OVH, FR
52.169.238.66|8075|52.160.0.0/11|US|arin|2015-11-24|MICROSOFT-CORP-MSN-AS-BLOCK, US
54.219.97.9|16509|54.219.0.0/17|US|arin|2014-10-23|AMAZON-02, US
54.38.177.175|16276|54.38.0.0/16|FR|ripencc|1992-03-17|OVH, FR
62.210.103.45|12876|62.210.0.0/16|FR|ripencc|2000-10-26|Online SAS, FR
63.250.36.66|22612|63.250.36.0/24|US|arin|2019-07-16|NAMECHEAP-NET, US
64.15.145.102|32613|64.15.128.0/19|CA|arin|2005-11-07|IWEB-AS, CA
66.114.33.90|13831|66.114.32.0/20|US|arin|2003-09-30|POGOZONE-OA, US
66.208.64.128|10352|66.208.64.0/20|US|arin|2006-04-17|WCTC, US
66.36.143.90|6280|66.36.140.0/22|CA|arin|2002-08-22|SYNAPSE, CA
66.42.163.222|6181|66.42.128.0/18|US|arin|2003-05-28|FUSE-NET, US
66.96.199.249|56300|66.96.199.0/24|SG|apnic|2001-11-01|MYREPUBLIC-SG MyRepublic Ltd., SG
69.64.225.2|13409|69.64.224.0/20|US|arin|2003-08-04|PDX, US
71.244.226.161|701|71.244.128.0/17|US|arin|2004-11-09|UUNET, US
72.74.34.120|701|72.74.0.0/16|US|arin|2005-06-24|UUNET, US
78.90.91.220|35141|78.90.91.0/24|BG|ripencc|2007-06-27|MEGALAN, BG
79.45.239.138|3269|79.44.0.0/15|IT|ripencc|2007-02-21|ASN-IBSNAZ, IT
8.210.141.183|45102|8.210.128.0/17|SG|apnic|1992-12-01|CNNIC-ALIBABA-US-NET-AP Alibaba (US) Technology Co., Ltd., CN
8.210.93.37|45102|8.210.0.0/17|SG|apnic|1992-12-01|CNNIC-ALIBABA-US-NET-AP Alibaba (US) Technology Co., Ltd., CN
81.161.226.4|43131|81.161.226.0/24|GB|ripencc|2018-08-20|KAY-NET Kay Net (UK) Ltd, GB
82.116.50.101|30936|82.116.32.0/19|RU|ripencc|2004-01-20|RENET-COM-AS RENET COM Autonomous System, RU
82.177.176.24|20804|82.177.0.0/16|PL|ripencc|2003-08-26|ASN-TELENERGO ul. PERKUNA 47, WARSZAWA, PL
82.194.153.233|8445|82.194.128.0/19|AT|ripencc|2003-10-20|SALZBURG-AG-AS, AT
83.135.176.3|8881|83.135.176.0/22|DE|ripencc|2004-01-28|VERSATEL, DE
83.162.2.12|3265|83.160.0.0/14|NL|ripencc|2004-03-03|XS4ALL-NL Amsterdam, NL
85.208.71.18|42275|85.208.71.0/24|FR|ripencc|2019-02-21|THREEFOURTEEN, FR
85.214.48.208|6724|85.214.0.0/15|DE|ripencc|2005-02-24|STRATO STRATO AG, DE
85.220.190.246|25394|85.220.128.0/17|DE|ripencc|2005-02-07|MK-NETZDIENSTE-AS, DE
86.87.91.133|1136|86.80.0.0/12|NL|ripencc|2005-03-23|KPN KPN National, NL
86.91.36.212|1136|86.80.0.0/12|NL|ripencc|2005-03-23|KPN KPN National, NL
87.244.111.91|8681|87.244.64.0/18|GB|ripencc|2005-08-02|JT, GB
88.147.148.152|12389|88.147.128.0/17|RU|ripencc|2006-01-11|ROSTELECOM-AS, RU
88.198.48.91|24940|88.198.0.0/16|DE|ripencc|2005-12-27|HETZNER-AS, DE
88.210.15.24|212702|88.210.0.0/20|RU|ripencc|2005-11-24|KMSKOMAS, RU
89.145.253.104|5413|89.145.192.0/18|GB|ripencc|2006-02-02|AS5413, GB
91.121.154.73|16276|91.121.0.0/16|FR|ripencc|2006-09-20|OVH, FR
91.126.234.159|35699|91.126.232.0/21|ES|ripencc|2006-10-24|ADAMOEU-AS Adamo Telecom Iberia S.A., ES
91.87.96.138|47377|91.87.96.0/19|BE|ripencc|2006-08-15|ORANGE_BELGIUM_SA KPN Belgium Business NV has been acquired by Mobistar, BE
94.130.84.44|24940|94.130.0.0/16|DE|ripencc|2008-06-23|HETZNER-AS, DE
94.140.123.164|43513|94.140.123.0/24|LV|ripencc|2008-12-03|NANO-AS, LV
94.17.100.238|12709|94.17.96.0/19|MT|ripencc|2008-06-20|MELITACABLE, MT
94.217.244.229|3209|94.216.0.0/13|DE|ripencc|2008-07-28|VODANET International IP-Backbone of Vodafone, DE
94.231.253.18|35224|94.231.253.0/24|NL|ripencc|2009-06-23|PLINQ, NL
95.211.138.110|60781|95.211.0.0/16|NL|ripencc|2009-02-05|LEASEWEB-NL-AMS-01 Netherlands, NL
95.82.176.138|31246|95.82.128.0/18|CZ|ripencc|2008-12-11|NETBOX-AS NETBOX Autonomous system, CZ
98.223.244.59|7922|98.192.0.0/10|US|arin|2007-04-20|COMCAST-7922, US
