# bitcoin dns seeds and whois results
IP Address|ASN|BGP Prefix|CC|Registry|Allocated|AS Name
101.101.209.80|135354|101.101.208.0/20|KR|apnic|2011-02-28|NBPAP-AS-AP NAVER BUSINESS PLATFORM ASIA PACIFIC PTE. LTD., SG
101.98.167.205|9790|101.98.0.0/16|NZ|apnic|2010-12-22|VOCUSGROUPNZ VocusGroup, NZ
103.151.176.21|40676|103.151.176.0/24|SG|apnic|2020-05-26|AS40676, US
104.143.2.195|26863|104.143.2.0/23|US|arin|2020-10-07|GAMESERVERKINGS, US
109.199.241.148|25374|109.199.241.0/24|BG|ripencc|2010-01-26|ESCOMBG-AS Local Internet Service Provider Bulgaria, BG
113.53.155.20|23969|113.53.144.0/20|TH|apnic|2008-10-22|TOT-NET TOT Public Company Limited, TH
116.202.196.182|24940|116.202.0.0/16|DE|ripencc|2011-01-17|HETZNER-AS, DE
116.203.151.175|24940|116.203.0.0/16|DE|ripencc|2011-01-17|HETZNER-AS, DE
13.126.218.145|16509|13.126.0.0/15|US|arin|2016-08-09|AMAZON-02, US
13.229.85.59|16509|13.228.0.0/15|US|arin|2016-08-09|AMAZON-02, US
13.231.20.249|16509|13.230.0.0/15|US|arin|2016-08-09|AMAZON-02, US
13.233.14.14|16509|13.232.0.0/14|US|arin|2016-08-09|AMAZON-02, US
13.233.97.177|16509|13.232.0.0/14|US|arin|2016-08-09|AMAZON-02, US
13.244.60.210|16509|13.244.0.0/15|US|arin|2018-07-11|AMAZON-02, US
13.80.67.162|8075|13.64.0.0/11|US|arin|2015-03-26|MICROSOFT-CORP-MSN-AS-BLOCK, US
136.36.137.179|16591|136.36.128.0/20|US|arin|2015-10-06|GOOGLE-FIBER, US
137.74.0.3|16276|137.74.0.0/16|FR|ripencc|1988-11-23|OVH, FR
142.190.28.198|13760|142.190.28.0/23|US|arin|2018-04-10|UNITI-FIBER, US
146.226.76.227|20243|146.226.0.0/17|VI|arin|1991-02-28|U, VI
157.97.7.24|43571|157.97.0.0/19|IS|ripencc|1995-07-13|NOVAIS-AS, IS
159.224.189.250|13188|159.224.189.0/24|UA|ripencc|2011-09-20|TRIOLAN, UA
162.0.208.48|22612|162.0.208.0/24|US|arin|2020-09-03|NAMECHEAP-NET, US
169.44.34.203|36351|169.44.0.0/17|US|ripencc|1993-09-01|SOFTLAYER, US
172.245.181.157|36352|172.245.176.0/21|US|arin|2013-04-22|AS-COLOCROSSING, US
176.36.81.57|39608|176.36.0.0/16|UA|ripencc|2011-05-20|LANETUA-AS, UA
178.236.87.138|42560|178.236.80.0/20|BA|ripencc|2010-06-02|BA-TELEMACH-AS Telemach d.o.o. Sarajevo, BA
178.63.174.225|24940|178.63.0.0/16|DE|ripencc|2010-03-02|HETZNER-AS, DE
18.222.229.143|16509|18.220.0.0/14|US|arin|2018-06-29|AMAZON-02, US
180.150.58.14|4764|180.150.56.0/22|AU|apnic|2009-09-01|WIDEBAND-AS-AP Aussie Broadband, AU
185.226.196.211|49467|185.226.196.0/24|TR|ripencc|2017-10-19|EUROTA-ASN EUROTA INTERNET SERVICES LTD, TR
185.8.104.152|16125|185.8.104.0/23|LT|ripencc|2012-10-30|CHERRYSERVERS1-AS, LT
188.124.181.6|34999|188.124.160.0/19|PL|ripencc|2009-06-26|PROINTERNET-AS ul. Leborska 23B, PL
192.99.32.109|16276|192.99.0.0/16|CA|arin|2013-06-17|OVH, FR
193.176.242.137|202468|193.176.242.0/23|IR|ripencc|2018-05-09|ABRARVAN-AS AbrArvan CDN and IaaS, IR
199.19.75.198|36007|199.19.75.0/24|US|arin|2019-01-22|KAMATERA, US
199.203.54.27|1680|199.203.0.0/16|US|arin|1994-03-22|NV-ASN CELLCOM ltd., IL
199.48.92.184|30600|199.48.92.0/22|US|arin|2016-12-19|AS-CMN, US
2.104.14.161|3292|2.104.0.0/13|DK|ripencc|2010-05-04|TDC TDC A/S, DK
200.7.173.110|27828|200.7.173.0/24|BO|lacnic|2006-03-07|UNIVERSIDAD MAYOR DE SAN ANDRES, BO
206.189.180.73|14061|206.189.176.0/20|US|arin|1995-11-15|DIGITALOCEAN-ASN, US
206.198.196.82|19693|206.198.196.0/23|US|arin|2018-01-12|CENTRILOGIC-ASN, US
206.252.192.14|8002|206.252.192.0/19|US|arin|1996-08-12|STEALTH, US
207.244.240.40|40021|207.244.240.0/20|US|arin|1996-11-20|CONTABO, US
208.102.7.153|6181|208.102.0.0/17|US|arin|2006-03-01|FUSE-NET, US
212.149.202.12|16086|212.149.128.0/17|FI|ripencc|2000-12-11|DNA, FI
212.97.48.5|5602|212.97.32.0/19|IT|ripencc|1999-06-29|AS-IRIDEOS-KP, IT
213.180.70.138|197308|213.180.64.0/19|SE|ripencc|2000-03-03|CYGATEGROUP, SE
213.183.62.154|56630|213.183.62.0/24|LT|ripencc|2008-10-28|MELBICOM-EU-AS Melbikomas UAB, LT
221.220.145.82|4808|221.220.128.0/18|CN|apnic|2003-11-19|CHINA169-BJ China Unicom Beijing Province Network, CN
24.132.27.107|6830|24.132.0.0/17|NL|ripencc|1997-10-13|LIBERTYGLOBAL Liberty Global (formerly UPC Broadband Holding, aka AORTA), NL
3.120.158.102|16509|3.120.0.0/14|US|arin|2017-12-20|AMAZON-02, US
3.121.203.169|16509|3.120.0.0/14|US|arin|2017-12-20|AMAZON-02, US
3.22.98.50|16509|3.20.0.0/14|US|arin|2017-12-20|AMAZON-02, US
31.42.188.74|50673|31.42.188.0/23|UA|ripencc|2011-02-23|SERVERIUS-AS, NL
34.123.213.165|15169|34.120.0.0/14|US|arin|2018-09-28|GOOGLE, US
34.226.136.24|14618|34.224.0.0/12|US|arin|2016-09-12|AMAZON-AES, US
34.78.180.55|15169|34.76.0.0/14|US|arin|2018-09-28|GOOGLE, US
35.157.178.223|16509|35.156.0.0/14|US|arin|2016-08-09|AMAZON-02, US
35.179.76.180|16509|35.178.0.0/15|US|arin|2016-08-09|AMAZON-02, US
35.203.9.43|15169|35.200.0.0/14|US|arin|2017-03-21|GOOGLE, US
35.205.83.203|15169|35.204.0.0/15|US|arin|2017-03-21|GOOGLE, US
35.237.109.49|15169|35.236.0.0/14|US|arin|2017-09-29|GOOGLE, US
40.114.68.106|8075|40.112.0.0/13|US|arin|2015-02-23|MICROSOFT-CORP-MSN-AS-BLOCK, US
46.254.217.169|48149|46.254.216.0/21|RU|ripencc|2010-12-22|ITKM-AS, RU
46.29.19.25|197226|46.29.16.0/21|PL|ripencc|2010-08-02|SPRINT-SDC, PL
46.32.50.98|39642|46.32.32.0/19|DK|ripencc|2010-08-12|DK-ESS-AS, DK
46.32.53.120|39642|46.32.32.0/19|DK|ripencc|2010-08-12|DK-ESS-AS, DK
47.188.241.189|5650|47.188.0.0/16|US|arin|2015-08-28|FRONTIER-FRTR, US
47.244.191.212|45102|47.244.128.0/17|US|arin|2016-04-15|CNNIC-ALIBABA-US-NET-AP Alibaba (US) Technology Co., Ltd., CN
49.12.85.232|24940|49.12.0.0/16|DE|ripencc|2010-10-21|HETZNER-AS, DE
5.166.210.181|42682|5.166.208.0/22|RU|ripencc|2012-07-25|ERTH-NNOV-AS, RU
5.254.101.226|3223|5.254.96.0/21|GB|ripencc|2012-09-13|VOXILITY, GB
5.79.71.221|60781|5.79.64.0/18|NL|ripencc|2012-06-14|LEASEWEB-NL-AMS-01 Netherlands, NL
5.9.110.254|24940|5.9.0.0/16|DE|ripencc|2012-04-25|HETZNER-AS, DE
5.9.147.140|24940|5.9.0.0/16|DE|ripencc|2012-04-25|HETZNER-AS, DE
5.9.59.154|24940|5.9.0.0/16|DE|ripencc|2012-04-25|HETZNER-AS, DE
50.115.47.50|18450|50.115.46.0/23|US|arin|2011-09-08|WEBNX, US
50.45.232.189|27017|50.45.128.0/17|US|arin|2010-09-24|ZIPLY-FIBER-LEGACY-ASN, US
51.255.149.50|16276|51.254.0.0/15|FR|ripencc|1993-09-01|OVH, FR
51.38.144.116|16276|51.38.0.0/16|FR|ripencc|1993-09-01|OVH, FR
54.39.133.203|16276|54.39.0.0/16|CA|arin|2017-10-16|OVH, FR
60.244.109.18|24154|60.244.96.0/19|TW|apnic|2005-01-21|APBT-AS-TW Asia Pacific Broadband Fixed Lines Co., Ltd., TW
62.138.162.12|20773|62.138.128.0/18|DE|ripencc|2000-09-19|GODADDY, DE
62.138.206.160|61157|62.138.192.0/20|DE|ripencc|2000-09-19|PLUSSERVER-ASN1, DE
64.37.18.216|32281|64.37.18.0/23|US|arin|2010-12-07|CCT-LLC, US
67.213.201.172|6528|67.213.201.0/24|US|arin|2007-09-17|SOUTH-TELEP, US
68.1.44.179|22773|68.1.32.0/19|US|arin|2001-11-12|ASN-CXA-ALL-CCI-22773-RDC, US
68.183.188.105|14061|68.183.176.0/20|US|arin|2018-09-18|DIGITALOCEAN-ASN, US
70.172.73.188|22773|70.172.0.0/17|US|arin|2004-07-21|ASN-CXA-ALL-CCI-22773-RDC, US
70.68.70.171|6327|70.68.68.0/22|CA|arin|2004-06-18|SHAW, CA
71.161.78.198|12175|71.161.76.0/22|US|arin|2005-06-01|YELMNET, US
71.174.243.79|701|71.174.0.0/16|US|arin|2005-06-01|UUNET, US
74.110.110.234|701|74.110.96.0/19|US|arin|2009-01-26|UUNET, US
74.98.242.97|701|74.98.192.0/18|US|arin|2009-01-26|UUNET, US
77.20.246.114|3209|77.20.0.0/14|DE|ripencc|2008-04-08|VODANET International IP-Backbone of Vodafone, DE
77.70.16.245|35141|77.70.16.0/24|BG|ripencc|2007-02-21|MEGALAN, BG
77.95.141.193|28716|77.95.136.0/21|IT|ripencc|2007-06-07|RETELIT-AS Internet Service Provider, IT
78.237.118.103|12322|78.224.0.0/11|FR|ripencc|2007-03-15|PROXAD, FR
79.142.248.130|50821|79.142.240.0/20|SE|ripencc|2009-06-15|ASHPDC, SE
8.210.170.138|45102|8.210.128.0/17|SG|apnic|1992-12-01|CNNIC-ALIBABA-US-NET-AP Alibaba (US) Technology Co., Ltd., CN
8.210.214.87|45102|8.210.128.0/17|SG|apnic|1992-12-01|CNNIC-ALIBABA-US-NET-AP Alibaba (US) Technology Co., Ltd., CN
8.210.92.32|45102|8.210.0.0/17|SG|apnic|1992-12-01|CNNIC-ALIBABA-US-NET-AP Alibaba (US) Technology Co., Ltd., CN
80.197.127.115|3292|80.196.0.0/14|DK|ripencc|2001-11-07|TDC TDC A/S, DK
81.88.221.190|39709|81.88.208.0/20|RU|ripencc|2006-04-11|EXTREME-AS, RU
82.177.176.24|20804|82.177.0.0/16|PL|ripencc|2003-08-26|ASN-TELENERGO ul. PERKUNA 47, WARSZAWA, PL
82.194.104.246|8881|82.194.96.0/19|DE|ripencc|2003-10-17|VERSATEL, DE
83.162.2.12|3265|83.160.0.0/14|NL|ripencc|2004-03-03|XS4ALL-NL Amsterdam, NL
86.16.246.240|5089|86.16.0.0/14|GB|ripencc|2005-03-29|NTL, GB
87.220.212.62|12479|87.220.212.0/23|ES|ripencc|2005-06-07|UNI2-AS, ES
87.246.46.132|43561|87.246.46.0/23|BG|ripencc|2005-08-25|NET1-AS, BG
88.150.40.22|43341|88.150.0.0/17|DE|ripencc|2006-01-23|MDLINK MDlink online service center GmbH, DE
89.108.122.224|197695|89.108.122.0/24|RU|ripencc|2006-03-20|AS-REG, RU
91.127.252.46|6855|91.127.0.0/16|SK|ripencc|2006-10-24|SK-TELEKOM Slovak Telekom / T-Mobile CZ, SK
92.253.144.180|50923|92.253.144.0/20|CZ|ripencc|2007-12-03|METRO-SET-AS Metroset Autonomous System, RU
93.57.81.162|12874|93.56.0.0/14|IT|ripencc|2008-02-25|FASTWEB, IT
95.216.226.218|24940|95.216.0.0/16|DE|ripencc|2009-02-24|HETZNER-AS, DE
95.216.68.44|24940|95.216.0.0/16|DE|ripencc|2009-02-24|HETZNER-AS, DE
95.48.228.45|5617|95.48.0.0/14|PL|ripencc|2008-09-26|TPNET, PL
