# bitcoin dns seeds and whois results
IP Address|ASN|BGP Prefix|CC|Registry|Allocated|AS Name
102.182.204.96|37611|102.182.0.0/16|ZA|afrinic|2017-06-02|Afrihost, ZA
102.65.223.78|328453|102.65.0.0/16||||Web-Africa-Networks-AS, ZA
104.248.157.169|14061|104.248.144.0/20|US|arin|2018-08-06|DIGITALOCEAN-ASN, US
109.99.63.159|9050|109.99.0.0/16|RO|ripencc|2009-07-21|RTD Bucharest, Romania, RO
116.83.253.217|2510|116.83.0.0/16|JP|apnic|2007-05-14|INFOWEB FUJITSU LIMITED, JP
118.93.57.249|9500|118.93.0.0/16|NZ|apnic|2007-08-24|VODAFONE-TRANSIT-AS Vodafone NZ Ltd., NZ
129.192.83.191|29518|129.192.80.0/22|US|arin|1994-11-15|BREDBAND2, SE
130.185.109.17|51191|130.185.104.0/21|DE|ripencc|2011-10-24|XIRRA, DE
135.181.145.169|24940|135.181.0.0/16|DE|ripencc|1996-04-30|HETZNER-AS, DE
138.43.233.57|394147|138.43.233.0/24|US|arin|2019-04-15|MVLINK, US
139.99.68.76|16276|139.99.0.0/17|CA|arin|2016-09-09|OVH, FR
143.110.171.191|14061|143.110.160.0/20|US|arin|2020-01-17|DIGITALOCEAN-ASN, US
143.89.60.134|3363|143.89.0.0/16|HK|apnic|1990-09-07|HKUST-AS-HK Hong Kong University of Science and Technology, HK
144.76.164.43|24940|144.76.0.0/16|DE|ripencc|1990-11-16|HETZNER-AS, DE
157.245.130.232|14061|157.245.128.0/20|US|arin|2019-05-09|DIGITALOCEAN-ASN, US
158.174.126.228|8473|158.174.0.0/16|GB|ripencc|1992-03-24|BAHNHOF http://www.bahnhof.net/, SE
161.97.71.151|51167|161.97.70.0/23|DE|ripencc|1992-06-23|CONTABO, DE
165.22.255.213|14061|165.22.240.0/20|US|arin|2018-10-16|DIGITALOCEAN-ASN, US
168.119.15.46|24940|168.119.0.0/16|DE|ripencc|1994-04-05|HETZNER-AS, DE
168.119.158.58|24940|168.119.0.0/16|DE|ripencc|1994-04-05|HETZNER-AS, DE
173.17.69.206|30036|173.17.68.0/22|US|arin|2008-05-19|MEDIACOM-ENTERPRISE-BUSINESS, US
173.249.5.183|51167|173.249.4.0/23|DE|ripencc|2010-05-26|CONTABO, DE
176.31.224.214|16276|176.31.0.0/16|FR|ripencc|2011-05-20|OVH, FR
178.236.87.138|42560|178.236.80.0/20|BA|ripencc|2010-06-02|BA-TELEMACH-AS Telemach d.o.o. Sarajevo, BA
178.62.213.120|14061|178.62.192.0/18|US|ripencc|2010-02-26|DIGITALOCEAN-ASN, US
18.134.152.187|16509|18.132.0.0/14|US|arin|2019-10-07|AMAZON-02, US
18.144.54.86|16509|18.144.0.0/15|US|arin|2019-10-07|AMAZON-02, US
185.113.129.154|42831|185.113.128.0/23|GB|ripencc|2015-08-14|UKSERVERS-AS UK Dedicated Servers, Hosting and Co-Location, GB
185.17.143.220|48757|185.17.140.0/22|RU|ripencc|2013-01-30|TRUSTINFO TrustInfo, Moscow, Russia, RU
185.30.247.169|197722|185.30.244.0/22|ES|ripencc|2013-07-18|TELECABLEANDALUCIA-AS, ES
185.53.88.6|213371|185.53.88.0/24|BZ|ripencc|2014-04-08|SQUITTER-NETWORKS, NL
185.59.101.51|201492|185.59.101.0/24|DE|ripencc|2014-05-30|NETVERSOR-4, DE
188.166.102.232|14061|188.166.64.0/18|US|ripencc|2009-06-05|DIGITALOCEAN-ASN, US
190.104.249.44|11014|190.104.249.0/24|AR|lacnic|2012-03-23|CPS, AR
190.196.60.122|18822|190.196.60.0/24|CL|lacnic|2007-07-02|Manquehuenet, CL
193.138.154.43|197393|193.138.152.0/22|CZ|ripencc|2010-11-12|ASRUDOLFNET, CZ
193.42.110.30|60144|193.42.110.0/23|RU|ripencc|2018-10-23|THREE-W-INFRA-AS -- TRANSIT --, NL
194.124.41.28|42160|194.124.41.0/24|RU|ripencc|2018-10-31|LCPDCO LCP AS dc oostkamp, BE
194.219.62.23|1241|194.219.0.0/17|GR|ripencc|1995-12-20|FORTHNET-GR Forthnet, EU
195.139.116.234|2116|195.139.0.0/16|NO|ripencc|1997-05-09|ASN-CATCHCOM, NO
195.201.35.229|24940|195.201.0.0/16|DE|ripencc|1997-09-22|HETZNER-AS, DE
195.56.63.10|5588|195.56.0.0/16|HU|ripencc|1996-04-26|GTSCE GTS Central Europe / Antel Germany, CZ
196.32.252.84|37049|196.32.248.0/21|ZA|afrinic|2016-02-04|SADV, ZA
196.50.196.82|327782|196.50.192.0/18|ZA|afrinic|2017-03-01|METROFIBRE-NETWORX, ZA
204.13.239.221|55106|204.13.232.0/21|US|arin|2011-04-19|DATACATE-AS1, US
208.93.231.240|29893|208.93.230.0/23|US|arin|2011-04-18|CHATANGO, US
212.248.32.74|8359|212.248.0.0/17|RU|ripencc|1998-02-26|MTS, RU
212.8.248.27|49981|212.8.248.0/23|NL|ripencc|1999-09-22|WORLDSTREAM, NL
213.142.185.1|42155|213.142.160.0/19|CH|ripencc|2001-03-21|CH-EVARD-4, CH
220.235.187.137|7545|220.235.160.0/19|AU|apnic|2005-01-29|TPG-INTERNET-AP TPG Telecom Limited, AU
223.18.5.147|9304|223.18.0.0/18|HK|apnic|2010-08-05|HUTCHISON-AS-AP HGC Global Communications Limited, HK
23.175.0.200|395502|23.175.0.0/24|US|arin|2016-10-26|JCOLO, US
24.226.68.134|7992|24.226.0.0/17|CA|arin|1997-03-31|COGECOWAVE, CA
3.211.51.136|14618|3.208.0.0/12|US|arin|2018-06-25|AMAZON-AES, US
3.237.205.105|14618|3.224.0.0/12|US|arin|2018-06-25|AMAZON-AES, US
31.3.135.181|199662|31.3.134.0/23|CH|ripencc|2011-04-08|EXION, CH
31.31.116.249|6876|31.31.96.0/19|UA|ripencc|2011-03-18|TENET-AS, UA
34.65.152.209|15169|34.64.0.0/14|US|arin|2018-09-28|GOOGLE, US
34.89.40.82|15169|34.88.0.0/14|US|arin|2018-09-28|GOOGLE, US
34.89.86.67|15169|34.88.0.0/14|US|arin|2018-09-28|GOOGLE, US
35.189.244.147|15169|35.189.224.0/19|US|arin|2016-10-11|GOOGLE, US
35.228.240.175|15169|35.228.0.0/14|US|arin|2017-09-29|GOOGLE, US
35.247.235.180|15169|35.244.0.0/14|US|arin|2017-09-29|GOOGLE, US
37.6.76.118|25472|37.6.0.0/17|GR|ripencc|2011-12-12|WIND-AS, GR
45.43.110.54|26827|45.43.96.0/20|US|arin|2015-03-30|EPBTELECOM, US
45.44.244.58|54198|45.44.244.0/22|CA|arin|2015-02-09|VIANET, CA
46.166.160.48|16125|46.166.160.0/21|LT|ripencc|2010-12-16|CHERRYSERVERS1-AS, LT
46.229.238.187|29405|46.229.224.0/20|SK|ripencc|2011-02-21|VNET-AS, SK
46.28.132.34|39586|46.28.128.0/21|RU|ripencc|2010-07-22|SATURNTELECOM, RU
46.59.40.91|8473|46.59.0.0/17|SE|ripencc|2010-10-19|BAHNHOF http://www.bahnhof.net/, SE
46.59.94.142|8473|46.59.0.0/17|SE|ripencc|2010-10-19|BAHNHOF http://www.bahnhof.net/, SE
47.196.46.139|5650|47.196.0.0/14|US|arin|2015-08-28|FRONTIER-FRTR, US
47.242.67.241|45102|47.242.0.0/16|US|arin|2016-04-15|CNNIC-ALIBABA-US-NET-AP Alibaba (US) Technology Co., Ltd., CN
5.135.156.68|16276|5.135.0.0/16|FR|ripencc|2012-07-06|OVH, FR
5.254.101.226|3223|5.254.96.0/21|GB|ripencc|2012-09-13|VOXILITY, GB
5.9.197.171|24940|5.9.0.0/16|DE|ripencc|2012-04-25|HETZNER-AS, DE
5.9.22.98|24940|5.9.0.0/16|DE|ripencc|2012-04-25|HETZNER-AS, DE
51.154.57.233|15796|51.154.0.0/16|CH|ripencc|1993-09-01|SALT-, CH
51.75.60.204|16276|51.75.0.0/16|FR|ripencc|1993-09-01|OVH, FR
51.77.53.58|16276|51.77.0.0/16|FR|ripencc|1993-09-01|OVH, FR
51.91.16.125|16276|51.91.0.0/16|FR|ripencc|1993-09-01|OVH, FR
54.36.177.3|16276|54.36.0.0/16|FR|ripencc|1992-03-17|OVH, FR
58.246.136.250|17621|58.246.0.0/16|CN|apnic|2005-06-16|CNCGROUP-SH China Unicom Shanghai network, CN
62.63.249.166|8473|62.63.192.0/18|SE|ripencc|2005-06-10|BAHNHOF http://www.bahnhof.net/, SE
64.98.48.179|32133|64.98.48.0/20|CA|arin|2000-05-18|AS-TING-BACKBONE, US
67.210.228.203|7819|67.210.224.0/21|US|arin|2007-08-22|GLOBAL-IP-NETWORKS, US
68.199.157.183|6128|68.196.0.0/14|US|arin|2003-01-29|CABLE-NET-1, US
72.53.134.182|11814|72.53.128.0/20|CA|arin|2005-07-29|DISTRIBUTEL-AS11814, CA
78.47.61.83|24940|78.46.0.0/15|DE|ripencc|2007-04-16|HETZNER-AS, DE
78.84.174.53|12578|78.84.0.0/16|LV|ripencc|2007-04-18|APOLLO-AS Latvia, LV
80.3.41.245|5089|80.3.0.0/17|GB|ripencc|2001-04-25|NTL, GB
81.198.86.39|12578|81.198.0.0/16|LV|ripencc|2002-10-02|APOLLO-AS Latvia, LV
82.65.13.159|12322|82.64.0.0/14|FR|ripencc|2003-04-03|PROXAD, FR
83.128.142.204|15435|83.128.0.0/16|NL|ripencc|2004-01-05|KABELFOON DELTA Fiber Nederland, NL
83.162.173.199|3265|83.160.0.0/14|NL|ripencc|2004-03-03|XS4ALL-NL Amsterdam, NL
85.152.0.87|12946|85.152.0.0/19|ES|ripencc|2004-10-20|TELECABLE Spain, ES
85.208.71.20|42275|85.208.71.0/24|FR|ripencc|2019-02-21|THREEFOURTEEN, FR
85.208.71.21|42275|85.208.71.0/24|FR|ripencc|2019-02-21|THREEFOURTEEN, FR
85.241.106.203|3243|85.240.0.0/13|PT|ripencc|2004-01-03|MEO-RESIDENCIAL, PT
87.122.94.177|8881|87.122.80.0/20|DE|ripencc|2005-07-27|VERSATEL, DE
87.132.201.1|3320|87.128.0.0/10|DE|ripencc|2005-05-03|DTAG Internet service provider operations, DE
87.247.111.222|21412|87.247.64.0/18|LT|ripencc|2005-09-06|CGATES-AS, LT
89.145.253.104|5413|89.145.192.0/18|GB|ripencc|2006-02-02|AS5413, GB
89.252.40.18|31148|89.252.40.0/24|UA|ripencc|2006-08-01|FREENET_LLC, UA
91.138.184.109|3329|91.138.128.0/17|GR|ripencc|2006-10-13|HOL-GR Athens, Greece, GR
91.148.141.211|203380|91.148.141.0/24|BG|ripencc|2006-11-13|DAINTERNATIONALGROUP, GB
91.181.52.200|5432|91.180.0.0/14|BE|ripencc|2006-09-04|PROXIMUS-ISP-AS, BE
92.195.117.160|20676|92.192.0.0/13|DE|ripencc|2007-10-17|PLUSNET *****************, DE
94.103.120.173|24904|94.103.120.0/22|FR|ripencc|2018-08-27|KWAOO K-NET SARL, FR
94.130.84.44|24940|94.130.0.0/16|DE|ripencc|2008-06-23|HETZNER-AS, DE
94.203.76.244|15802|94.203.64.0/19|AE|ripencc|2008-07-17|DU-AS1, AE
94.244.40.58|48278|94.244.0.0/18|UA|ripencc|2008-10-30|UKRDATACOM-NET-AS, UA
95.105.186.195|15962|95.105.128.0/17|SK|ripencc|2008-12-01|OSK-DNI Slovakia, SK
95.110.234.93|31034|95.110.192.0/18|IT|ripencc|2008-12-18|ARUBA-ASN, IT
95.217.35.79|24940|95.217.0.0/16|DE|ripencc|2009-02-24|HETZNER-AS, DE
95.217.96.83|24940|95.217.0.0/16|DE|ripencc|2009-02-24|HETZNER-AS, DE
96.255.139.230|701|96.255.0.0/16|US|arin|2006-12-29|UUNET, US
