# bitcoin dns seeds and whois results
IP Address|ASN|BGP Prefix|CC|Registry|Allocated|AS Name
1.172.125.48|3462|1.172.0.0/16|TW|apnic|2010-05-05|HINET Data Communication Business Group, TW
101.165.169.151|1221|101.160.0.0/11|AU|apnic|2010-12-23|ASN-TELSTRA Telstra Corporation Ltd, AU
104.217.252.25|40676|104.217.248.0/21|US|arin|2014-09-18|AS40676, US
109.220.216.134|3215|109.220.128.0/17|FR|ripencc|2009-10-07|France Telecom - Orange, FR
111.6.78.33|24445|111.6.0.0/16|CN|apnic|2009-05-06|CMNET-V4HENAN-AS-AP Henan Mobile Communications Co.,Ltd, CN
116.203.230.250|24940|116.203.0.0/16|DE|ripencc|2011-01-17|HETZNER-AS, DE
122.148.135.234|9443|122.148.0.0/16|AU|apnic|2007-01-05|VOCUS-RETAIL-AU Vocus Retail, AU
13.53.107.75|16509|13.53.0.0/16|US|arin|2020-08-05|AMAZON-02, US
13.59.238.218|16509|13.58.0.0/15|US|arin|2020-08-05|AMAZON-02, US
131.188.40.191|680|131.188.0.0/16|DE|ripencc|1989-01-03|DFN Verein zur Foerderung eines Deutschen Forschungsnetzes e.V., DE
134.122.145.149|64050|134.122.145.0/24|SG|apnic|1989-05-23|BCPL-SG BGPNET Global ASN, SG
138.68.227.57|14061|138.68.224.0/20|US|arin|2016-01-26|DIGITALOCEAN-ASN, US
138.68.31.242|14061|138.68.16.0/20|US|arin|2016-01-26|DIGITALOCEAN-ASN, US
140.190.13.9|14828|140.190.0.0/20|US|arin|2015-11-04|HBCI-1999TA, US
142.202.241.37|14315|142.202.240.0/22|US|arin|2019-12-27|1GSERVERS, US
145.132.50.204|1136|145.132.0.0/15|NL|ripencc|1993-09-01|KPN KPN National, NL
149.28.55.109|20473|149.28.32.0/19|US|arin|2018-05-04|AS-CHOOPA, US
151.248.157.24|8821|151.248.128.0/17|CH|ripencc|2012-08-17|TELEZUG WWZ Telekom AG (TELEZUG), CH
162.144.99.9|46606|162.144.0.0/16|US|arin|2013-03-01|UNIFIEDLAYER-AS-1, US
162.154.207.147|10796|162.152.0.0/14|US|arin|2012-10-10|TWC-10796-MIDWEST, US
162.250.189.53|26832|162.250.188.0/22|CA|arin|2013-12-26|RICAWEBSERVICES, CA
167.172.151.136|14061|167.172.144.0/20|US|ripencc|1993-08-30|DIGITALOCEAN-ASN, US
168.235.210.151|25601|168.235.210.0/23|US|arin|2014-06-27|FOWLERVILLE, US
173.12.181.181|7922|173.8.0.0/13|US|arin|2008-05-05|COMCAST-7922, US
173.76.200.174|701|173.76.0.0/16|US|arin|2008-08-11|UUNET, US
176.9.22.148|24940|176.9.0.0/16|DE|ripencc|2011-05-17|HETZNER-AS, DE
178.128.17.153|14061|178.128.16.0/20|US|ripencc|2010-03-03|DIGITALOCEAN-ASN, US
178.236.87.138|42560|178.236.80.0/20|BA|ripencc|2010-06-02|BA-TELEMACH-AS Telemach d.o.o. Sarajevo, BA
18.188.40.131|16509|18.188.0.0/16|US|arin|2019-10-07|AMAZON-02, US
185.26.28.170|31415|185.26.28.0/24|RU|ripencc|2013-05-14|SVSCOMM-AS, RU
187.189.153.165|22884|187.189.153.0/24|MX|lacnic|2011-12-08|TOTAL PLAY TELECOMUNICACIONES SA DE CV, MX
188.149.149.142|39651|188.148.0.0/14|SE|ripencc|2009-03-17|COMHEM-SWEDEN, SE
188.190.234.13|56433|188.190.224.0/19|UA|ripencc|2011-02-17|ASLANUA-NETWORK, UA
188.26.196.193|57269|188.26.192.0/21|RO|ripencc|2009-02-11|DIGISPAINTELECOM, ES
193.196.39.103|34878|193.196.32.0/20|DE|ripencc|1993-09-01|KIT Karlsruhe Institute of Technology, DE
193.26.159.32|197540|193.26.156.0/22|AT|ripencc|2018-07-09|NETCUP-AS netcup GmbH, DE
195.154.80.143|12876|195.154.0.0/16|FR|ripencc|1996-08-27|Online SAS, FR
198.199.79.31|14061|198.199.64.0/20|US|arin|2013-03-27|DIGITALOCEAN-ASN, US
198.245.61.137|16276|198.245.48.0/20|CA|arin|2012-04-16|OVH, FR
199.203.54.27|1680|199.203.0.0/16|IL|arin|1994-03-22|NV-ASN CELLCOM ltd., IL
2.132.64.11|9198|2.132.64.0/22|KZ|ripencc|2010-12-23|KAZTELECOM-AS, KZ
2.234.122.191|12874|2.232.0.0/13|IT|ripencc|2010-12-30|FASTWEB, IT
202.183.164.32|9891|202.183.164.0/22|TH|apnic|2000-02-17|CSLOX-IDC-AS-AP CS LOXINFO Public Company Limited., TH
206.125.84.244|13868|206.125.64.0/19|US|arin|1995-09-28|PEAK, US
206.252.192.6|8002|206.252.192.0/19|US|arin|1996-08-12|STEALTH, US
207.255.193.47|11776|207.255.193.0/24|US|arin|2004-06-14|ATLANTICBB-JOHNSTOWN, US
209.205.124.38|7979|209.205.120.0/21|US|arin|2015-06-04|SERVERS-COM, US
212.227.211.87|8560|212.227.0.0/16|DE|ripencc|1998-09-10|IONOS-AS This is the joint network for IONOS, Fasthosts, Arsys, 1&1 Mail and Media and 1&1 Telecom. Formerly known as 1&1 Internet SE., DE
213.152.106.56|57154|213.152.96.0/19|DE|ripencc|2008-10-10|SWKN Stadtwerke Konstanz GmbH, DE
217.104.75.11|33915|217.104.64.0/18|NL|ripencc|2000-12-05|TNF-AS, NL
217.92.55.246|3320|217.80.0.0/12|DE|ripencc|2000-10-26|DTAG Internet service provider operations, DE
221.220.155.169|4808|221.220.128.0/18|CN|apnic|2003-11-19|CHINA169-BJ China Unicom Beijing Province Network, CN
3.112.22.239|16509|3.112.0.0/14|US|arin|2017-12-20|AMAZON-02, US
3.227.11.183|14618|3.224.0.0/12|US|arin|2018-06-25|AMAZON-AES, US
3.236.45.242|14618|3.224.0.0/12|US|arin|2018-06-25|AMAZON-AES, US
3.35.40.175|16509|3.34.0.0/15|US|arin|2017-12-20|AMAZON-02, US
3.8.165.235|16509|3.8.0.0/14|US|arin|2017-12-20|AMAZON-02, US
3.8.166.25|16509|3.8.0.0/14|US|arin|2017-12-20|AMAZON-02, US
34.123.84.183|15169|34.120.0.0/14|US|arin|2018-09-28|GOOGLE, US
34.126.107.179|15169|34.124.0.0/14|US|arin|2018-09-28|GOOGLE, US
34.90.157.209|15169|34.88.0.0/14|US|arin|2018-09-28|GOOGLE, US
34.97.40.102|15169|34.97.0.0/17|US|arin|2018-09-28|GOOGLE, US
35.180.187.229|16509|35.180.0.0/16|US|arin|2016-08-09|AMAZON-02, US
35.228.210.96|15169|35.228.0.0/14|US|arin|2017-09-29|GOOGLE, US
35.246.144.163|15169|35.244.0.0/14|US|arin|2017-09-29|GOOGLE, US
35.246.216.185|15169|35.244.0.0/14|US|arin|2017-09-29|GOOGLE, US
35.247.241.173|15169|35.244.0.0/14|US|arin|2017-09-29|GOOGLE, US
37.187.153.29|16276|37.187.0.0/16|FR|ripencc|2012-03-20|OVH, FR
37.235.178.123|41268|37.235.128.0/17|RU|ripencc|2012-04-16|LANTA-AS, RU
38.87.54.162|174|38.0.0.0/8|US|arin|1991-04-16|COGENT-174, US
39.118.216.192|9318|39.116.0.0/14|KR|apnic|2011-04-08|SKB-AS SK Broadband Co Ltd, KR
45.88.9.118|206238|45.88.8.0/23|SK|ripencc|2019-06-18|FREEDOMINTERNET, NL
46.175.178.3|56427|46.175.176.0/21|CZ|ripencc|2011-02-17|ASHRADIL, CZ
47.108.143.117|37963|47.108.0.0/16|CN|apnic|1989-01-06|CNNIC-ALIBABA-CN-NET-AP Hangzhou Alibaba Advertising Co.,Ltd., CN
47.108.56.231|37963|47.108.0.0/16|CN|apnic|1989-01-06|CNNIC-ALIBABA-CN-NET-AP Hangzhou Alibaba Advertising Co.,Ltd., CN
47.74.185.172|45102|47.74.128.0/18|US|arin|2016-03-17|CNNIC-ALIBABA-US-NET-AP Alibaba (US) Technology Co., Ltd., CN
5.254.56.74|3223|5.254.56.0/24|GB|ripencc|2012-09-13|VOXILITY, GB
5.9.77.70|24940|5.9.0.0/16|DE|ripencc|2012-04-25|HETZNER-AS, DE
5.9.8.28|24940|5.9.0.0/16|DE|ripencc|2012-04-25|HETZNER-AS, DE
51.210.155.36|16276|51.210.0.0/16|FR|ripencc|1993-09-01|OVH, FR
51.38.144.116|16276|51.38.0.0/16|FR|ripencc|1993-09-01|OVH, FR
54.68.82.186|16509|54.68.0.0/15|US|arin|2014-06-20|AMAZON-02, US
63.247.147.166|30221|63.247.144.0/20|US|arin|2007-04-11|T3COM, US
63.32.157.30|16509|63.32.0.0/14|US|arin|2018-01-10|AMAZON-02, US
64.225.74.251|14061|64.225.64.0/20|US|arin|2019-08-14|DIGITALOCEAN-ASN, US
64.52.25.249|395570|64.52.24.0/21|US|arin|2000-03-06|FIBRESTREAM, CA
64.98.72.92|32133|64.98.64.0/20|CA|arin|2000-05-18|AS-TING-BACKBONE, US
65.31.247.102|10796|65.31.224.0/19|US|arin|2000-08-22|TWC-10796-MIDWEST, US
66.115.219.87|13576|66.115.192.0/18|US|arin|2002-12-20|SDNW-13576, US
70.183.190.131|22773|70.183.190.0/24|US|arin|2004-07-21|ASN-CXA-ALL-CCI-22773-RDC, US
72.196.119.116|22773|72.196.112.0/20|US|arin|2005-08-03|ASN-CXA-ALL-CCI-22773-RDC, US
72.48.253.168|7459|72.48.0.0/16|US|arin|2005-05-03|GRANDECOM-AS1, US
73.119.255.56|7922|73.0.0.0/8|US|arin|2005-04-19|COMCAST-7922, US
73.163.247.220|7922|73.0.0.0/8|US|arin|2005-04-19|COMCAST-7922, US
77.189.167.49|6805|77.176.0.0/12|DE|ripencc|2006-11-17|TDDE-ASN1, DE
77.242.84.34|41046|77.242.80.0/20|CZ|ripencc|2007-02-27|NEJTV-AS, CZ
77.53.53.196|45011|77.53.0.0/16|SE|ripencc|2007-01-24|SE-A3 http://www.a3.se/, SE
77.6.79.105|6805|77.0.0.0/12|DE|ripencc|2006-11-21|TDDE-ASN1, DE
8.210.93.37|45102|8.210.0.0/17|SG|apnic|1992-12-01|CNNIC-ALIBABA-US-NET-AP Alibaba (US) Technology Co., Ltd., CN
80.242.39.76|44234|80.242.36.0/22|SK|ripencc|2007-12-10|GAYA-AS P.O.Hviezdoslava 23B, SK
81.229.89.161|3301|81.224.0.0/12|SE|ripencc|2002-10-04|TELIANET-SWEDEN Telia Company, SE
82.10.188.54|5089|82.8.0.0/14|GB|ripencc|2003-02-28|NTL, GB
84.255.244.61|34779|84.255.192.0/18|SI|ripencc|2004-12-14|T-2-AS AS set propagated by T-2 d.o.o., SI
85.167.127.116|2119|85.164.0.0/14|NO|ripencc|2004-11-18|TELENOR-NEXTEL Telenor Norge AS, NO
86.170.48.82|2856|86.128.0.0/10|GB|ripencc|2005-02-07|BT-UK-AS BTnet UK Regional network, GB
86.52.128.8|197288|86.52.0.0/16|DK|ripencc|2005-05-04|STOFANET, DK
87.244.111.91|8681|87.244.64.0/18|GB|ripencc|2005-08-02|JT, GB
87.63.22.106|3292|87.48.0.0/12|DK|ripencc|2005-05-20|TDC TDC A/S, DK
88.208.57.212|39572|88.208.0.0/18|NL|ripencc|2005-10-24|ADVANCEDHOSTERS-AS, NL
89.178.167.26|8402|89.178.0.0/15|RU|ripencc|2006-03-22|CORBINA-AS OJSC _Vimpelcom_, RU
92.204.132.78|398108|92.204.128.0/20|DE|ripencc|2007-10-17|GO-DADDY-COM-LLC, US
92.39.203.142|13122|92.39.200.0/21|GB|ripencc|2008-03-04|MANX-AS MANX-TELECOM Autonomous System, GB
93.179.197.152|31242|93.179.192.0/18|PL|ripencc|2008-04-14|TKPSA-AS, PL
93.89.84.93|39326|93.89.80.0/20|GB|ripencc|2008-04-03|HSO-GROUP, GB
94.130.20.181|24940|94.130.0.0/16|DE|ripencc|2008-06-23|HETZNER-AS, DE
95.216.238.2|24940|95.216.0.0/16|DE|ripencc|2009-02-24|HETZNER-AS, DE
95.85.254.28|43708|95.85.192.0/18|CZ|ripencc|2008-12-31|METRONET, CZ
95.88.98.4|3209|95.88.0.0/14|DE|ripencc|2008-12-15|VODANET International IP-Backbone of Vodafone, DE
