# bitcoin dns seeds and whois results
IP Address|ASN|BGP Prefix|CC|Registry|Allocated|AS Name
102.132.245.16|37680|102.132.240.0/20|ZA|afrinic|2018-07-04|COOL-IDEAS, ZA
103.117.146.98|45753|103.117.146.0/24|HK|apnic|2018-06-27|NETSEC-HK NETSEC, HK
104.143.2.195|26863|104.143.2.0/23|US|arin|2020-10-07|GAMESERVERKINGS, US
104.244.79.131|53667|104.244.79.0/24|US|arin|2014-11-10|PONYNET, US
104.248.160.118|14061|104.248.160.0/20|US|arin|2018-08-06|DIGITALOCEAN-ASN, US
109.238.46.186|15935|109.238.32.0/20|CZ|ripencc|2010-01-20|HA-VEL-LOCAL-AS Czech republic, CZ
110.173.58.162|45753|110.173.58.0/24|HK|apnic|2009-05-07|NETSEC-HK NETSEC, HK
111.90.140.46|45839|111.90.140.0/24|MY|apnic|2009-06-17|SHINJIRU-MY-AS-AP Shinjiru Technology Sdn Bhd, MY
113.52.135.125|133024|113.52.135.0/24|HK|apnic|2010-12-23|XIM-HK Room 704, ChinaChen Leighton Plaza, HK
116.109.65.95|7552|116.109.64.0/21|VN|apnic|2007-05-18|VIETEL-AS-AP Viettel Group, VN
116.202.196.118|24940|116.202.0.0/16|DE|ripencc|2011-01-17|HETZNER-AS, DE
117.74.45.247|59108|117.74.32.0/19|JP|apnic|2007-07-06|KATCH-NET KATCH NETWORK INC., JP
144.76.12.6|24940|144.76.0.0/16|DE|ripencc|1990-11-16|HETZNER-AS, DE
148.251.237.73|24940|148.251.0.0/16|DE|ripencc|1993-09-01|HETZNER-AS, DE
149.28.38.131|20473|149.28.32.0/19|US|arin|2018-05-04|AS-CHOOPA, US
154.65.14.19|37628|154.65.12.0/22|ZA|afrinic|2013-09-26|KAB-Tech-AS, ZA
162.0.226.225|22612|162.0.226.0/24|US|arin|2020-04-03|NAMECHEAP-NET, US
162.209.88.174|19994|162.209.80.0/20|US|arin|2013-03-26|RACKSPACE, US
173.212.235.121|51167|173.212.224.0/20|DE|ripencc|2009-10-26|CONTABO, DE
173.31.161.228|30036|173.31.160.0/21|US|arin|2008-05-19|MEDIACOM-ENTERPRISE-BUSINESS, US
173.44.42.135|8100|173.44.32.0/19|US|arin|2010-01-11|ASN-QUADRANET-GLOBAL, US
176.191.182.3|5410|176.128.0.0/10|FR|ripencc|2011-07-06|BOUYGTEL-ISP, FR
176.223.137.37|62282|176.223.128.0/20|LT|ripencc|2011-11-29|RACKRAY UAB Rakrejus, LT
176.9.78.227|24940|176.9.0.0/16|DE|ripencc|2011-05-17|HETZNER-AS, DE
178.194.142.34|3303|178.194.0.0/15|CH|ripencc|2010-02-24|SWISSCOM Swisscom (Switzerland) Ltd, CH
178.236.87.138|42560|178.236.80.0/20|BA|ripencc|2010-06-02|BA-TELEMACH-AS Telemach d.o.o. Sarajevo, BA
178.63.41.60|24940|178.63.0.0/16|DE|ripencc|2010-03-02|HETZNER-AS, DE
178.76.234.182|15774|178.76.234.0/24|RU|ripencc|2010-04-08|TTK-RTL Retail, RU
18.162.120.42|16509|18.162.0.0/16|US|arin|2019-10-07|AMAZON-02, US
183.77.157.168|4685|183.76.0.0/15|JP|apnic|2009-10-30|ASAHI-NET Asahi Net, JP
185.14.29.22|21100|185.14.28.0/22|UA|ripencc|2012-12-21|ITLDC-NL, UA
185.155.96.203|202759|185.155.96.0/24|EE|ripencc|2016-06-08|WHS, EE
185.204.197.112|60631|185.204.197.0/24|IR|ripencc|2021-02-25|PARVASYSTEM, IR
185.233.148.146|60118|185.233.148.0/22|RO|ripencc|2017-11-24|CYBERSMARTSOLUTIONS-AS, RO
185.25.48.184|61272|185.25.48.0/22|LT|ripencc|2013-04-29|IST-AS, LT
185.75.117.124|48926|185.75.116.0/22|CZ|ripencc|2014-10-31|PE3NY-AS, CZ
188.134.74.188|41733|188.134.0.0/17|RU|ripencc|2009-04-27|ZTELECOM-AS, RU
188.190.234.13|56433|188.190.224.0/19|UA|ripencc|2011-02-17|ASLANUA-NETWORK, UA
188.222.178.151|5607|188.220.0.0/14|GB|ripencc|2009-05-26|BSKYB-BROADBAND-AS, GB
188.243.116.199|35807|188.242.0.0/15|RU|ripencc|2009-06-23|SKYNET-SPB-AS, RU
192.64.113.167|22612|192.64.113.0/24|US|arin|2012-12-17|NAMECHEAP-NET, US
193.111.156.2|24881|193.111.156.0/22|UA|ripencc|2002-04-25|INTERPHONE-AS, UA
193.168.147.25|62000|193.168.146.0/23|FR|ripencc|2018-12-11|NETRIX-AS Netrix, FR
193.189.190.123|5603|193.189.176.0/20|SI|ripencc|1996-04-19|SIOL-NET Telekom Slovenije d.d., SI
193.198.68.178|2108|193.198.0.0/16|HR|ripencc|1993-09-01|CARNET-AS J.Marohnica 5, 10000 Zagreb, HR
193.222.130.14|29208|193.222.130.0/24|CZ|ripencc|2005-08-17|DIALTELECOM-AS Dial Telecom a.s., CZ
193.58.196.212|5578|193.58.196.0/23|SK|ripencc|1997-01-21|AS-BENESTRA Bratislava, Slovak Republic, SK
194.135.135.69|25227|194.135.135.0/24|RU|ripencc|1995-02-06|ASN-AVANTEL-MSK Located in Moscow, Russia., RU
194.33.83.20|198854|194.33.83.0/24|PL|ripencc|2012-05-30|SECNET-AS, PL
199.164.166.140|393507|199.164.166.0/24|US|arin|1994-03-15|GUSHISYS, US
199.195.253.39|53667|199.195.248.0/21|US|arin|2012-06-06|PONYNET, US
2.152.78.124|6739|2.152.0.0/16|ES|ripencc|2010-11-03|ONO-AS Cableuropa - ONO, ES
200.111.227.36|27651|200.111.227.0/24|CL|lacnic|2007-10-03|ENTEL CHILE S.A., CL
202.177.24.140|7479|202.177.24.0/24|HK|apnic|1997-03-10|KDDHK-AS-AP KDD HONG KONG LIMITED, HK
206.188.144.184|3855|206.188.144.0/24|BM|arin|2005-07-19|LOGIC-3855, BM
210.212.232.140|9829|210.212.224.0/20|IN|apnic|1999-03-16|BSNL-NIB National Internet Backbone, IN
212.69.62.128|12496|212.69.32.0/19|GB|ripencc|1999-06-15|IDNET IDNet, GB
213.174.156.73|39572|213.174.128.0/19|NL|ripencc|2008-01-17|ADVANCEDHOSTERS-AS, NL
213.202.212.78|24961|213.202.192.0/18|DE|ripencc|2002-10-21|MYLOC-AS IP Backbone of myLoc managed IT AG, DE
213.48.232.9|5089|213.48.192.0/18|GB|ripencc|1999-07-19|NTL, GB
3.120.148.145|16509|3.120.0.0/14|US|arin|2017-12-20|AMAZON-02, US
31.25.98.16|48635|31.25.96.0/21|NL|ripencc|2011-03-03|PCEXTREME-, NL
34.125.77.92|15169|34.124.0.0/14|US|arin|2018-09-28|GOOGLE, US
34.222.37.152|16509|34.208.0.0/12|US|arin|2016-09-12|AMAZON-02, US
34.249.21.210|16509|34.248.0.0/13|US|arin|2016-09-12|AMAZON-02, US
34.251.215.228|16509|34.248.0.0/13|US|arin|2016-09-12|AMAZON-02, US
34.92.136.198|15169|34.92.0.0/14|US|arin|2018-09-28|GOOGLE, US
34.92.215.155|15169|34.92.0.0/14|US|arin|2018-09-28|GOOGLE, US
34.97.79.59|15169|34.97.0.0/17|US|arin|2018-09-28|GOOGLE, US
35.228.230.233|15169|35.228.0.0/14|US|arin|2017-09-29|GOOGLE, US
35.236.147.87|15169|35.236.0.0/14|US|arin|2017-09-29|GOOGLE, US
37.139.102.73|35816|37.139.96.0/20|RU|ripencc|2012-02-27|SEVSTAR Sevastopol, Russia, RU
37.220.109.238|47264|37.220.104.0/21|GB|ripencc|2012-04-03|LDEX, GB
45.58.126.138|23470|45.58.126.0/24|US|arin|2015-02-24|RELIABLESITE, US
46.175.178.3|56427|46.175.176.0/21|CZ|ripencc|2011-02-17|ASHRADIL, CZ
46.200.80.157|6849|46.200.80.0/23|UA|ripencc|2011-01-14|UKRTELNET, UA
46.255.172.148|15600|46.255.168.0/21|CH|ripencc|2010-12-31|FINECOM Quickline AG, CH
46.29.20.203|197226|46.29.16.0/21|PL|ripencc|2010-08-02|SPRINT-SDC, PL
49.12.83.44|24940|49.12.0.0/16|DE|ripencc|2010-10-21|HETZNER-AS, DE
5.71.168.169|5607|5.64.0.0/13|GB|ripencc|2012-06-11|BSKYB-BROADBAND-AS, GB
51.158.150.155|12876|51.158.128.0/17|FR|ripencc|1993-09-01|Online SAS, FR
52.78.217.89|16509|52.78.0.0/16|US|arin|1991-12-19|AMAZON-02, US
54.191.204.251|16509|54.191.0.0/16|US|arin|2014-10-23|AMAZON-02, US
61.92.120.41|9269|61.92.64.0/18|HK|apnic|2001-11-23|HKBN-AS-AP Hong Kong Broadband Network Ltd., HK
64.250.112.70|23367|64.250.112.0/20|US|arin|2010-11-17|GENADAP, US
64.33.68.176|11232|64.33.64.0/18|US|arin|2016-12-05|MIDCO-NET, US
68.89.232.80|7018|68.88.0.0/13|US|arin|2003-02-12|ATT-INTERNET4, US
69.130.201.27|4181|69.130.201.0/24|US|arin|2003-03-25|TDS-AS, US
72.53.134.182|11814|72.53.128.0/20|CA|arin|2005-07-29|DISTRIBUTEL-AS11814, CA
72.80.6.222|701|72.80.0.0/16|US|arin|2005-06-24|UUNET, US
74.213.232.246|14978|74.213.232.0/24|US|arin|2008-05-01|CSSBB, US
77.251.235.248|33915|77.250.0.0/15|NL|ripencc|2007-01-26|TNF-AS, NL
77.85.204.149|8866|77.85.204.0/24|BG|ripencc|2007-03-19|BTC-AS BULGARIA, BG
8.210.177.89|45102|8.210.128.0/17|SG|apnic|1992-12-01|CNNIC-ALIBABA-US-NET-AP Alibaba (US) Technology Co., Ltd., CN
8.210.214.87|45102|8.210.128.0/17|SG|apnic|1992-12-01|CNNIC-ALIBABA-US-NET-AP Alibaba (US) Technology Co., Ltd., CN
80.108.17.214|6830|80.108.0.0/16|AT|ripencc|2001-07-19|LIBERTYGLOBAL Liberty Global (formerly UPC Broadband Holding, aka AORTA), NL
80.238.125.164|41676|80.238.96.0/19|PL|ripencc|2006-10-03|JMDI ORG-JJM1-RIPE, PL
80.250.55.32|43513|80.250.48.0/20|LV|ripencc|2005-07-19|NANO-AS, LV
80.254.126.33|21479|80.254.96.0/19|RU|ripencc|2003-10-31|ROSTOV-TELEGRAF-AS, RU
82.116.50.101|30936|82.116.32.0/19|RU|ripencc|2004-01-20|RENET-COM-AS RENET COM Autonomous System, RU
82.194.153.233|8445|82.194.128.0/19|AT|ripencc|2003-10-20|SALZBURG-AG-AS, AT
82.199.102.10|30784|82.199.96.0/19|RU|ripencc|2003-12-01|ISKRATELECOM-AS SEVEN-SKY, RU
83.128.142.204|15435|83.128.0.0/16|NL|ripencc|2004-01-05|KABELFOON DELTA Fiber Nederland, NL
83.135.84.39|8881|83.135.80.0/20|DE|ripencc|2004-01-28|VERSATEL, DE
83.151.229.140|51918|83.151.228.0/22|GB|ripencc|2004-03-30|CERBERUSNETWORKS-AS, GB
85.131.75.52|16086|85.131.0.0/17|FI|ripencc|2004-11-24|DNA, FI
85.93.96.18|34315|85.93.96.0/19|CZ|ripencc|2004-12-09|MAXNET-AS, CZ
86.142.168.147|2856|86.128.0.0/12|GB|ripencc|2005-02-07|BT-UK-AS BTnet UK Regional network, GB
87.75.105.186|25310|87.74.0.0/15|GB|ripencc|2005-05-11|ASN-CWACCESS, GB
89.166.152.158|9145|89.166.128.0/17|DE|ripencc|2006-03-22|EWETEL Cloppenburger Strasse 310, DE
91.187.89.18|6752|91.187.88.0/22|AD|ripencc|2006-11-17|ANDORRA Andorra Telecom, AD
92.232.198.59|5089|92.232.0.0/16|GB|ripencc|2007-10-31|NTL, GB
93.190.140.14|49981|93.190.140.0/22|NL|ripencc|2008-05-16|WORLDSTREAM, NL
93.55.242.131|12874|93.48.0.0/13|IT|ripencc|2008-02-25|FASTWEB, IT
93.95.102.81|48347|93.95.100.0/22|RU|ripencc|2008-03-28|MTW-AS, RU
94.140.68.10|3212|94.140.64.0/19|SI|ripencc|2008-12-02|TELEMACH Broadband Access & Carrier Services, SI
94.176.233.88|62282|94.176.232.0/21|LT|ripencc|2008-08-14|RACKRAY UAB Rakrejus, LT
95.217.41.248|24940|95.217.0.0/16|DE|ripencc|2009-02-24|HETZNER-AS, DE
95.217.78.168|24940|95.217.0.0/16|DE|ripencc|2009-02-24|HETZNER-AS, DE
