# bitcoin dns seeds and whois results
IP Address|ASN|BGP Prefix|CC|Registry|Allocated|AS Name
104.197.202.178|15169|104.197.192.0/19|US|arin|2014-08-27|GOOGLE, US
104.248.207.3|14061|104.248.192.0/20|US|arin|2018-08-06|DIGITALOCEAN-ASN, US
109.238.11.95|21409|109.238.0.0/20|FR|ripencc|2010-01-20|IKOULA, FR
114.23.122.174|56030|114.23.0.0/16|NZ|apnic|2011-01-10|VOYAGERNET-AS-AP Voyager Internet Ltd., NZ
116.202.196.118|24940|116.202.0.0/16|DE|ripencc|2011-01-17|HETZNER-AS, DE
119.8.19.194|135026|119.8.19.0/24|SG|apnic|2007-11-23|THINKDREAM-AS-AP ThinkDream Technology Limited, HK
13.236.204.65|16509|13.236.0.0/14|US|arin|2019-10-01|AMAZON-02, US
130.51.200.132|23423|130.51.200.0/24|US|arin|2020-01-24|HIGH-SPEED-UTAH, US
136.52.114.123|16591|136.52.112.0/20|US|arin|2015-10-06|GOOGLE-FIBER, US
139.99.68.76|16276|139.99.0.0/17|CA|arin|2016-09-09|OVH, FR
143.89.60.134|3363|143.89.0.0/16|HK|apnic|1990-09-07|HKUST-AS-HK Hong Kong University of Science and Technology, HK
151.80.46.136|16276|151.80.0.0/16|IT|ripencc|1991-05-13|OVH, FR
155.254.132.247|394660|155.254.132.0/24|US|arin|2015-04-13|CHOICETEL-ER, US
159.89.116.85|14061|159.89.112.0/20|US|arin|2017-07-07|DIGITALOCEAN-ASN, US
160.2.202.163|11492|160.2.202.0/24|US|arin|2017-12-21|CABLEONE, US
161.35.90.45|14061|161.35.80.0/20|US|arin|2019-07-30|DIGITALOCEAN-ASN, US
161.53.201.185|2108|161.53.0.0/16|HR|ripencc|1993-09-01|CARNET-AS J.Marohnica 5, 10000 Zagreb, HR
162.0.211.61|22612|162.0.211.0/24|US|arin|2020-09-03|NAMECHEAP-NET, US
169.44.34.203|36351|169.44.0.0/17|US|ripencc|1993-09-01|SOFTLAYER, US
170.106.39.246|132203|170.106.36.0/22|SG|apnic|1994-03-25|TENCENT-NET-AP-CN Tencent Building, Kejizhongyi Avenue, CN
172.105.21.216|63949|172.105.0.0/19|US|arin|2015-06-19|LINODE-AP Linode, LLC, US
173.224.98.174|12177|173.224.96.0/20|US|arin|2010-01-19|ETS-TELEPHONE-COMPANY, US
176.74.240.113|28878|176.74.224.0/19|NL|ripencc|2011-06-17|SIGNET-AS, NL
178.183.99.149|12912|178.180.0.0/14|PL|ripencc|2010-02-03|TM, PL
178.79.83.93|3212|178.79.64.0/18|SI|ripencc|2010-05-07|TELEMACH Broadband Access & Carrier Services, SI
181.45.255.27|27747|181.45.240.0/20|AR|lacnic|2013-12-16|Telecentro S.A., AR
184.171.208.109|40788|184.171.208.0/20|CA|arin|2010-10-19|START-, CA
185.158.114.184|44812|185.158.114.0/24|RU|ripencc|2016-07-05|IPSERVER-RU-NET Fiord, RU
185.19.28.195|61098|185.19.28.0/22|CH|ripencc|2013-02-19|EXOSCALE, CH
186.32.212.112|262197|186.32.212.0/23|CR|lacnic|2011-06-24|MILLICOM CABLE COSTA RICA S.A., CR
188.244.39.181|8334|188.244.32.0/20|RU|ripencc|2009-07-24|CO-2COM-AS Moscow, RU
188.244.4.78|39709|188.244.0.0/20|RU|ripencc|2009-07-07|EXTREME-AS, RU
188.250.84.129|3243|188.250.0.0/15|PT|ripencc|2011-02-10|MEO-RESIDENCIAL, PT
188.31.113.184|206067|188.31.112.0/20|GB|ripencc|2009-02-13|H3GUK, GB
190.196.60.122|18822|190.196.60.0/24|CL|lacnic|2007-07-02|Manquehuenet, CL
192.111.59.75|22422|192.111.56.0/21|US|arin|2013-01-29|BOARD-OF-ELECTIONS-IN-THE-CITY-OF-NEW-YORK, US
193.210.231.219|1759|193.208.0.0/14|FI|ripencc|1993-12-20|TSF-IP-CORE Telia Finland Oyj, FI
194.187.224.131|34197|194.187.224.0/22|FR|ripencc|2005-09-21|SHRD-AS, FR
197.245.7.249|11845|197.245.0.0/16|ZA|afrinic|2011-08-17|Vox-Telecom, ZA
197.248.59.90|37061|197.248.59.0/24|KE|afrinic|2011-05-05|Safaricom, KE
199.164.166.141|393507|199.164.166.0/24|US|arin|1994-03-15|GUSHISYS, US
2.201.135.198|3209|2.200.0.0/14|DE|ripencc|2010-11-18|VODANET International IP-Backbone of Vodafone, DE
203.28.246.107|398088|203.28.246.0/24|US|arin|2019-11-25|VANWATECH, US
204.107.27.43|54303|204.107.27.0/24|US|arin|2011-12-19|FILMO, US
204.111.241.195|4922|204.111.128.0/17|US|arin|1995-05-03|SHENTEL, US
206.75.97.177|852|206.75.0.0/16|CA|arin|1995-08-01|TELUS Communications, CA
207.254.73.148|395337|207.254.72.0/22|US|arin|2016-02-08|MACST-VEGAS, US
213.168.190.59|15614|213.168.176.0/20|CZ|ripencc|2003-04-08|DRAGON Dragon Internet a.s., CZ
213.220.197.76|16019|213.220.192.0/19|CZ|ripencc|2003-03-06|VODAFONE-CZ-AS, CZ
216.18.178.238|29789|216.18.160.0/19|US|arin|2009-08-31|REFLECTED, US
216.38.129.164|6994|216.38.128.0/19|US|arin|1998-08-12|FASTMETRICS, US
217.145.94.94|20665|217.145.80.0/20|BG|ripencc|2004-04-06|VARNANET-AS, BG
217.169.3.167|20712|217.169.0.0/19|GB|ripencc|2001-03-22|AS20712 Andrews & Arnold Ltd, GB
220.233.178.199|10143|220.233.128.0/18|AU|apnic|2005-04-11|EXETEL-AS-AP Exetel Pty Ltd, AU
23.224.70.245|40065|23.224.0.0/15|US|arin|2013-09-04|CNSERVERS, US
23.29.117.226|29802|23.29.116.0/23|US|arin|2012-03-16|HVC-AS, US
3.127.236.227|16509|3.124.0.0/14|US|arin|2017-12-20|AMAZON-02, US
31.186.25.70|199484|31.186.25.0/24|TR|ripencc|2011-03-23|BETAINTERNATIONAL, TR
34.106.214.26|15169|34.104.0.0/14|US|arin|2018-09-28|GOOGLE, US
34.240.10.66|16509|34.240.0.0/13|US|arin|2016-09-12|AMAZON-02, US
34.73.101.96|15169|34.72.0.0/14|US|arin|2018-09-28|GOOGLE, US
34.91.188.86|15169|34.88.0.0/14|US|arin|2018-09-28|GOOGLE, US
34.93.222.205|15169|34.92.0.0/14|US|arin|2018-09-28|GOOGLE, US
34.94.187.145|15169|34.92.0.0/14|US|arin|2018-09-28|GOOGLE, US
35.189.42.216|15169|35.189.32.0/19|US|arin|2016-10-11|GOOGLE, US
39.99.38.210|37963|39.96.0.0/14|CN|apnic|2011-04-05|CNNIC-ALIBABA-CN-NET-AP Hangzhou Alibaba Advertising Co.,Ltd., CN
45.32.201.171|20473|45.32.192.0/20|US|arin|2015-02-17|AS-CHOOPA, US
45.89.16.45|35048|45.89.16.0/22|RU|ripencc|2019-06-20|BITERIKA-AS, RU
46.249.83.82|43561|46.249.64.0/19|BG|ripencc|2010-12-30|NET1-AS, BG
46.4.225.212|24940|46.4.0.0/16|DE|ripencc|2010-08-19|HETZNER-AS, DE
46.6.15.209|15704|46.6.0.0/18|ES|ripencc|2010-09-03|AS15704, ES
5.128.87.126|31200|5.128.0.0/16|RU|ripencc|2012-06-29|NTK IPv6 customers, RU
51.210.215.139|16276|51.210.0.0/16|FR|ripencc|1993-09-01|OVH, FR
51.6.28.10|6871|51.6.0.0/15|GB|ripencc|1993-09-01|PLUSNET UK Internet Service Provider, GB
52.30.154.84|16509|52.30.0.0/15|US|arin|1991-12-19|AMAZON-02, US
52.47.164.176|16509|52.47.0.0/16|US|arin|1991-12-19|AMAZON-02, US
54.93.45.76|16509|54.93.32.0/19|US|arin|2014-06-20|AMAZON-02, US
61.250.91.26|9848|61.250.64.0/18|KR|apnic|2001-03-21|SEJONGTELECOM-AS-KR Sejong Telecom, KR
62.133.194.156|28788|62.133.192.0/18|NL|ripencc|2003-02-21|UNILOGICNET-AS, NL
62.143.85.253|3209|62.143.0.0/17|DE|ripencc|2001-08-16|VODANET International IP-Backbone of Vodafone, DE
62.210.6.33|12876|62.210.0.0/16|FR|ripencc|2000-10-26|Online SAS, FR
64.250.112.70|23367|64.250.112.0/20|US|arin|2010-11-17|GENADAP, US
73.229.134.168|7922|73.0.0.0/8|US|arin|2005-04-19|COMCAST-7922, US
76.100.17.13|7922|76.96.0.0/11|US|arin|2007-01-02|COMCAST-7922, US
77.37.236.10|42610|77.37.128.0/17|RU|ripencc|2007-03-21|NCNET-AS, RU
77.53.135.74|45011|77.53.0.0/16|SE|ripencc|2007-01-24|SE-A3 http://www.a3.se/, SE
77.79.85.236|39582|77.79.85.0/24|TR|ripencc|2007-03-12|GRID, TR
77.85.204.149|8866|77.85.204.0/24|BG|ripencc|2007-03-19|BTC-AS BULGARIA, BG
78.141.225.96|20473|78.141.224.0/19|US|ripencc|2007-07-30|AS-CHOOPA, US
78.46.151.58|24940|78.46.0.0/15|DE|ripencc|2007-04-16|HETZNER-AS, DE
78.46.99.198|24940|78.46.0.0/15|DE|ripencc|2007-04-16|HETZNER-AS, DE
78.90.91.220|35141|78.90.91.0/24|BG|ripencc|2007-06-27|MEGALAN, BG
79.199.47.77|3320|79.192.0.0/10|DE|ripencc|2007-06-06|DTAG Internet service provider operations, DE
8.209.71.217|45102|8.209.64.0/19|SG|apnic|1992-12-01|CNNIC-ALIBABA-US-NET-AP Alibaba (US) Technology Co., Ltd., CN
82.197.204.14|25596|82.197.192.0/19|NL|ripencc|2003-11-11|CAMBRIUM-AS, NL
83.148.241.203|39699|83.148.192.0/18|FI|ripencc|2004-03-09|SSPOY-AS, FI
83.87.117.145|33915|83.84.0.0/14|NL|ripencc|2003-11-28|TNF-AS, NL
83.99.245.20|24651|83.99.128.0/17|LV|ripencc|2004-01-27|LVBALTICOM-AS, LV
85.152.0.87|12946|85.152.0.0/19|ES|ripencc|2004-10-20|TELECABLE Spain, ES
86.15.241.253|5089|86.14.0.0/15|GB|ripencc|2005-03-29|NTL, GB
86.31.163.247|5089|86.24.0.0/13|GB|ripencc|2005-03-29|NTL, GB
86.76.7.132|15557|86.64.0.0/12|FR|ripencc|2005-03-02|LDCOMNET, FR
87.251.164.39|5563|87.251.164.0/22|RU|ripencc|2005-09-13|URAL Ural Regional Net, RU
88.214.57.95|30823|88.214.57.0/24|DE|ripencc|2018-11-20|COMBAHTON combahton GmbH, DE
91.193.237.116|42916|91.193.236.0/23|RU|ripencc|2007-05-09|IT-AS, RU
91.239.130.62|62240|91.239.130.0/24|GB|ripencc|2019-11-12|CLOUVIDER Clouvider - Global ASN, GB
92.237.239.64|5089|92.236.0.0/15|GB|ripencc|2007-10-31|NTL, GB
92.243.9.198|203476|92.243.0.0/20|FR|ripencc|2008-01-10|GANDI-AS-2 Domain name registrar - http://www.gandi.net, FR
93.103.20.210|34779|93.103.0.0/19|SI|ripencc|2008-03-14|T-2-AS AS set propagated by T-2 d.o.o., SI
93.234.124.196|3320|93.192.0.0/10|DE|ripencc|2008-02-12|DTAG Internet service provider operations, DE
94.140.123.164|43513|94.140.123.0/24|LV|ripencc|2008-12-03|NANO-AS, LV
94.17.100.238|12709|94.17.96.0/19|MT|ripencc|2008-06-20|MELITACABLE, MT
94.199.173.120|48362|94.199.168.0/21|AT|ripencc|2008-11-17|TKSWF-AS, AT
94.23.214.15|16276|94.23.0.0/16|FR|ripencc|2008-07-15|OVH, FR
94.62.97.2|12353|94.60.0.0/14|PT|ripencc|2008-06-23|VODAFONE-PT Vodafone Portugal, PT
95.214.53.154|201814|95.214.52.0/22|PL|ripencc|2018-12-21|PL-SKYTECH-AS, PL
95.217.114.36|24940|95.217.0.0/16|DE|ripencc|2009-02-24|HETZNER-AS, DE
95.69.249.63|20850|95.69.248.0/22|UA|ripencc|2008-11-19|VALORKIEV-AS Kharkov, Ukraine, UA
98.39.66.219|7922|98.32.0.0/11|US|arin|2007-06-06|COMCAST-7922, US
