# bitcoin dns seeds and whois results
IP Address|ASN|BGP Prefix|CC|Registry|Allocated|AS Name
100.36.19.244|701|100.36.0.0/16|US|arin|2010-12-28|UUNET, US
101.108.1.219|23969|101.108.0.0/20|TH|apnic|2010-12-13|TOT-NET TOT Public Company Limited, TH
104.248.57.27|14061|104.248.48.0/20|US|arin|2018-08-06|DIGITALOCEAN-ASN, US
13.251.210.202|16509|13.250.0.0/15|US|arin|2018-07-11|AMAZON-02, US
13.57.192.196|16509|13.57.0.0/16|US|arin|2020-08-05|AMAZON-02, US
134.122.145.149|64050|134.122.145.0/24|SG|apnic|1989-05-23|BCPL-SG BGPNET Global ASN, SG
135.180.103.219|46375|135.180.0.0/16|US|arin|2013-05-10|AS-SONICTELECOM, US
136.56.55.17|16591|136.56.48.0/20|US|arin|2015-10-06|GOOGLE-FIBER, US
138.197.168.65|14061|138.197.160.0/20|US|arin|2016-01-26|DIGITALOCEAN-ASN, US
143.178.64.10|50266|143.178.0.0/17|NL|ripencc|1990-10-01|TMOBILE-THUIS, NL
144.76.8.98|24940|144.76.0.0/16|DE|ripencc|1990-11-16|HETZNER-AS, DE
148.251.110.53|24940|148.251.0.0/16|DE|ripencc|1993-09-01|HETZNER-AS, DE
151.248.156.55|8821|151.248.128.0/17|CH|ripencc|2012-08-17|TELEZUG WWZ Telekom AG (TELEZUG), CH
155.4.26.146|8473|155.4.0.0/16|NO|ripencc|1991-10-30|BAHNHOF http://www.bahnhof.net/, SE
158.140.209.79|9310|158.140.209.0/24|AU|apnic|1992-03-10|MYREPUBLICNETS-AS-AP MYREPUBLIC PTY LTD, AU
165.22.237.13|14061|165.22.224.0/20|US|arin|2018-10-16|DIGITALOCEAN-ASN, US
167.172.139.248|14061|167.172.128.0/20|US|ripencc|1993-08-30|DIGITALOCEAN-ASN, US
168.119.0.182|24940|168.119.0.0/16|DE|ripencc|1994-04-05|HETZNER-AS, DE
176.9.82.79|24940|176.9.0.0/16|DE|ripencc|2011-05-17|HETZNER-AS, DE
177.84.43.2|52708|177.84.42.0/23|BR|lacnic|2012-12-28|Linenet Suprimentos para Informatica LTDA-ME, BR
178.79.83.93|3212|178.79.64.0/18|SI|ripencc|2010-05-07|TELEMACH Broadband Access & Carrier Services, SI
18.132.48.243|16509|18.132.0.0/14|US|arin|2019-10-07|AMAZON-02, US
18.159.60.231|16509|18.156.0.0/14|US|arin|2019-10-07|AMAZON-02, US
18.203.235.181|16509|18.202.0.0/15|US|arin|2019-10-07|AMAZON-02, US
184.160.82.12|5769|184.160.64.0/18|CA|arin|2010-06-21|VIDEOTRON, CA
185.104.180.7|48881|185.104.180.0/22|RO|ripencc|2015-06-15|DATA-NODE-AS, RO
185.233.148.146|60118|185.233.148.0/22|RO|ripencc|2017-11-24|CYBERSMARTSOLUTIONS-AS, RO
185.26.28.173|31415|185.26.28.0/24|RU|ripencc|2013-05-14|SVSCOMM-AS, RU
188.230.136.208|34779|188.230.128.0/19|SI|ripencc|2009-07-30|T-2-AS AS set propagated by T-2 d.o.o., SI
189.121.172.220|28573|189.121.0.0/16|BR|lacnic|2008-06-03|CLARO S.A., BR
189.213.221.174|6503|189.213.216.0/21|MX|lacnic|2014-06-12|Axtel, S.A.B. de C.V., MX
190.220.16.92|19037|190.220.0.0/17|AR|lacnic|2007-10-30|AMX Argentina S.A., AR
190.245.217.9|7303|190.245.192.0/19|AR|lacnic|2008-02-19|Telecom Argentina S.A., AR
192.145.143.134|328596|192.145.128.0/19|ZA|afrinic|2020-01-07|Mind-the-Speed-AS, ZA
192.41.136.217|559|192.41.136.0/24|CH|ripencc|1988-06-08|SWITCH Peering requests: (peering@switch.ch), CH
199.68.199.19|1426|199.68.196.0/22|US|arin|2011-01-10|LIGHTWAVENET, US
203.51.27.108|1221|203.48.0.0/14|AU|apnic|1994-09-02|ASN-TELSTRA Telstra Corporation Ltd, AU
207.180.233.49|51167|207.180.232.0/23|DE|ripencc|1996-08-21|CONTABO, DE
207.254.73.148|395337|207.254.72.0/22|US|arin|2016-02-08|MACST-VEGAS, US
209.250.241.254|20473|209.250.240.0/21|US|ripencc|2006-06-08|AS-CHOOPA, US
209.6.156.54|6079|209.6.0.0/16|US|arin|1996-12-20|RCN-AS, US
209.97.137.55|14061|209.97.128.0/20|US|arin|1997-07-03|DIGITALOCEAN-ASN, US
212.8.250.141|49981|212.8.250.0/24|NL|ripencc|1999-09-22|WORLDSTREAM, NL
213.239.196.9|24940|213.239.192.0/18|DE|ripencc|2003-05-28|HETZNER-AS, DE
217.19.216.210|1547|217.19.216.0/24|MD|ripencc|2003-01-24|IDK-NETWORK, MD
217.81.5.53|3320|217.80.0.0/12|DE|ripencc|2000-10-26|DTAG Internet service provider operations, DE
3.10.5.123|16509|3.8.0.0/14|US|arin|2017-12-20|AMAZON-02, US
3.15.37.142|16509|3.14.0.0/15|US|arin|2017-12-20|AMAZON-02, US
3.17.174.43|16509|3.16.0.0/14|US|arin|2017-12-20|AMAZON-02, US
3.234.251.85|14618|3.224.0.0/12|US|arin|2018-06-25|AMAZON-AES, US
31.150.203.99|9145|31.150.0.0/16|DE|ripencc|2011-02-17|EWETEL Cloppenburger Strasse 310, DE
31.16.217.18|3209|31.16.0.0/14|DE|ripencc|2011-03-24|VODANET International IP-Backbone of Vodafone, DE
34.101.132.198|139190|34.101.0.0/16|US|arin|2018-09-28|GOOGLE-AS-AP Google Asia Pacific Pte. Ltd., SG
34.64.249.186|139070|34.64.0.0/16|US|arin|2018-09-28|GOOGLE-AS-AP Google Asia Pacific Pte. Ltd., SG
34.65.239.250|15169|34.64.0.0/14|US|arin|2018-09-28|GOOGLE, US
34.75.177.194|15169|34.72.0.0/14|US|arin|2018-09-28|GOOGLE, US
34.87.168.12|15169|34.84.0.0/14|US|arin|2018-09-28|GOOGLE, US
34.92.87.60|15169|34.92.0.0/14|US|arin|2018-09-28|GOOGLE, US
35.205.83.203|15169|35.204.0.0/15|US|arin|2017-03-21|GOOGLE, US
35.221.114.222|15169|35.220.0.0/14|US|arin|2017-09-29|GOOGLE, US
35.221.196.29|15169|35.220.0.0/14|US|arin|2017-09-29|GOOGLE, US
35.228.238.236|15169|35.228.0.0/14|US|arin|2017-09-29|GOOGLE, US
37.34.249.83|42961|37.34.240.0/20|KW|ripencc|2012-01-03|GPRS-AS ZAIN, KW
45.19.203.67|7018|45.16.0.0/12|US|arin|2014-12-11|ATT-INTERNET4, US
45.58.126.138|23470|45.58.126.0/24|US|arin|2015-02-24|RELIABLESITE, US
45.77.156.223|20473|45.77.144.0/20|US|arin|2015-04-24|AS-CHOOPA, US
45.85.48.58|208016|45.85.48.0/22|DE|ripencc|2019-06-04|TINC-AS, DE
46.146.248.89|12768|46.146.0.0/16|RU|ripencc|2010-10-13|ER-TELECOM-AS, RU
46.160.202.162|33993|46.160.200.0/21|RU|ripencc|2010-11-15|ELSITE-AS Elsite network, RU
46.233.31.4|42431|46.233.0.0/19|BG|ripencc|2011-02-21|B-NET, BG
47.75.176.144|45102|47.75.128.0/17|US|arin|2016-03-17|CNNIC-ALIBABA-US-NET-AP Alibaba (US) Technology Co., Ltd., CN
47.98.38.66|37963|47.98.0.0/15|CN|apnic|1989-01-06|CNNIC-ALIBABA-CN-NET-AP Hangzhou Alibaba Advertising Co.,Ltd., CN
49.177.103.146|4804|49.177.64.0/18|AU|apnic|2010-12-02|MPX-AS Microplex PTY LTD, AU
5.135.140.215|16276|5.135.0.0/16|FR|ripencc|2012-07-06|OVH, FR
5.39.92.122|16276|5.39.0.0/17|FR|ripencc|2012-05-15|OVH, FR
5.9.140.228|24940|5.9.0.0/16|DE|ripencc|2012-04-25|HETZNER-AS, DE
50.115.47.50|18450|50.115.46.0/23|US|arin|2011-09-08|WEBNX, US
51.148.153.60|13037|51.148.0.0/16|GB|ripencc|1993-09-01|ZEN-AS Zen Internet - UK, GB
51.159.2.218|12876|51.158.0.0/15|FR|ripencc|1993-09-01|Online SAS, FR
51.77.117.99|16276|51.77.0.0/16|FR|ripencc|1993-09-01|OVH, FR
51.83.67.9|16276|51.83.0.0/16|FR|ripencc|1993-09-01|OVH, FR
52.47.84.26|16509|52.47.0.0/16|US|arin|1991-12-19|AMAZON-02, US
54.79.89.2|16509|54.79.0.0/17|US|arin|2014-06-20|AMAZON-02, US
59.167.155.59|4739|59.167.0.0/16|AU|apnic|2005-09-14|INTERNODE-AS Internode Pty Ltd, AU
62.171.129.51|51167|62.171.128.0/23|DE|ripencc|2000-08-18|CONTABO, DE
65.21.73.164|24940|65.21.0.0/16|DE|ripencc|2001-09-26|HETZNER-AS, DE
67.207.86.153|14061|67.207.80.0/20|US|arin|2016-04-12|DIGITALOCEAN-ASN, US
69.221.131.44|7018|69.216.0.0/13|US|arin|2004-02-10|ATT-INTERNET4, US
70.35.98.12|32264|70.35.96.0/20|US|arin|2009-07-07|KMTELECOM, US
71.38.122.193|209|71.38.0.0/16|US|arin|2004-12-17|CENTURYLINK-US-LEGACY-QWEST, US
72.48.253.168|7459|72.48.0.0/16|US|arin|2005-05-03|GRANDECOM-AS1, US
74.220.255.190|23175|74.220.254.0/23|US|arin|2008-07-24|POGOZONE, US
75.119.157.139|51167|75.119.128.0/19|DE|ripencc|2006-05-12|CONTABO, DE
77.242.84.34|41046|77.242.80.0/20|CZ|ripencc|2007-02-27|NEJTV-AS, CZ
78.142.6.117|31083|78.142.6.0/24|BG|ripencc|2007-07-30|TELEPOINT, BG
78.26.26.146|202204|78.26.0.0/18|NO|ripencc|2007-08-29|TROLLFJORD, NO
8.210.170.138|45102|8.210.128.0/17|SG|apnic|1992-12-01|CNNIC-ALIBABA-US-NET-AP Alibaba (US) Technology Co., Ltd., CN
8.210.52.253|45102|8.210.0.0/17|SG|apnic|1992-12-01|CNNIC-ALIBABA-US-NET-AP Alibaba (US) Technology Co., Ltd., CN
80.242.39.76|44234|80.242.36.0/22|SK|ripencc|2007-12-10|GAYA-AS P.O.Hviezdoslava 23B, SK
82.197.204.14|25596|82.197.192.0/19|NL|ripencc|2003-11-11|CAMBRIUM-AS, NL
83.68.224.57|51132|83.68.224.0/19|SE|ripencc|2004-05-19|ARKADEN, SE
88.210.15.24|212702|88.210.0.0/20|RU|ripencc|2005-11-24|KMSKOMAS, RU
88.214.57.95|30823|88.214.57.0/24|DE|ripencc|2018-11-20|COMBAHTON combahton GmbH, DE
88.82.181.44|39178|88.82.180.0/22|RU|ripencc|2005-12-22|OPTILINK-AS, RU
88.86.243.241|48432|88.86.240.0/20|FR|ripencc|2006-02-15|SCGS-AS, FR
89.103.245.224|16019|89.103.0.0/16|CZ|ripencc|2006-02-24|VODAFONE-CZ-AS, CZ
89.244.223.234|8881|89.244.208.0/20|DE|ripencc|2006-05-04|VERSATEL, DE
90.165.120.190|12479|90.165.120.0/22|ES|ripencc|2006-09-12|UNI2-AS, ES
91.209.51.131|48239|91.209.51.0/24|UA|ripencc|2008-10-22|ITTV-AS Kiev, Ukraine, UA
91.66.23.155|3209|91.64.0.0/14|DE|ripencc|2006-07-10|VODANET International IP-Backbone of Vodafone, DE
93.209.99.250|3320|93.192.0.0/10|DE|ripencc|2008-02-12|DTAG Internet service provider operations, DE
94.102.125.136|29124|94.102.112.0/20|RU|ripencc|2008-09-04|ISKRATELECOM-AS SEVEN-SKY, RU
94.16.175.196|15600|94.16.128.0/17|CH|ripencc|2008-06-05|FINECOM Quickline AG, CH
94.23.248.61|16276|94.23.0.0/16|FR|ripencc|2008-07-15|OVH, FR
94.23.51.183|16276|94.23.0.0/16|FR|ripencc|2008-07-15|OVH, FR
94.75.207.99|60781|94.75.192.0/18|NL|ripencc|2008-07-24|LEASEWEB-NL-AMS-01 Netherlands, NL
95.216.10.83|24940|95.216.0.0/16|DE|ripencc|2009-02-24|HETZNER-AS, DE
98.11.3.136|11351|98.10.0.0/15|US|arin|2007-01-29|TWC-11351-NORTHEAST, US
99.192.223.19|27589|99.192.128.0/17|US|arin|2009-04-22|MOJOHOST, US
