# bitcoin dns seeds and whois results
IP Address|ASN|BGP Prefix|CC|Registry|Allocated|AS Name
101.101.209.80|135354|101.101.208.0/20|KR|apnic|2011-02-28|NBPAP-AS-AP NAVER BUSINESS PLATFORM ASIA PACIFIC PTE. LTD., SG
103.199.18.37|63734|103.199.16.0/22|VN|apnic|2015-10-22|GREENCLOUDVPS-AS-VN 365 Online technology joint stock company, VN
104.199.56.247|15169|104.199.32.0/19|US|arin|2014-08-27|GOOGLE, US
104.248.2.226|14061|104.248.0.0/20|US|arin|2018-08-06|DIGITALOCEAN-ASN, US
107.173.166.43|36352|107.173.166.0/23|US|arin|2013-12-27|AS-COLOCROSSING, US
107.181.189.37|46562|107.181.189.0/24|US|arin|2014-02-14|PERFORMIVE, US
116.125.124.226|9318|116.125.0.0/16|KR|apnic|2007-05-21|SKB-AS SK Broadband Co Ltd, KR
13.126.218.145|16509|13.126.0.0/15|US|arin|2016-08-09|AMAZON-02, US
136.33.232.165|16591|136.33.224.0/20|US|arin|2015-10-06|GOOGLE-FIBER, US
141.136.241.102|13046|141.136.128.0/17|HR|ripencc|2011-06-29|ASN-ISKON HEP, HR
142.93.202.228|14061|142.93.192.0/20|US|arin|2018-07-12|DIGITALOCEAN-ASN, US
144.76.19.195|24940|144.76.0.0/16|DE|ripencc|1990-11-16|HETZNER-AS, DE
145.40.27.154|50821|145.40.16.0/20|SE|ripencc|1993-09-01|ASHPDC, SE
148.251.4.14|24940|148.251.0.0/16|DE|ripencc|1993-09-01|HETZNER-AS, DE
15.206.146.144|16509|15.206.0.0/15|US|arin|2019-03-26|AMAZON-02, US
157.13.61.83|2907|157.13.0.0/16|JP|apnic|1992-09-03|SINET-AS Research Organization of Information and Systems, National Institute of Informatics, JP
157.7.211.107|7506|157.7.128.0/17|JP|apnic|1992-08-14|INTERQ GMO Internet,Inc, JP
161.97.181.147|51167|161.97.176.0/21|DE|ripencc|1992-06-23|CONTABO, DE
162.255.137.142|47869|162.255.136.0/22|US|arin|2014-05-15|NETROUTING-AS, NL
167.86.105.53|51167|167.86.104.0/23|DE|ripencc|1993-05-14|CONTABO, DE
172.104.151.93|63949|172.104.128.0/19|US|arin|2015-06-19|LINODE-AP Linode, LLC, US
173.62.236.28|701|173.62.128.0/17|US|arin|2008-10-09|UUNET, US
176.10.65.135|56571|176.10.65.0/24|ES|ripencc|2011-05-18|CABLEX, ES
176.105.33.148|48683|176.105.0.0/17|UA|ripencc|2012-01-03|BI-LINK-AS, UA
176.99.245.112|35598|176.99.192.0/18|RU|ripencc|2012-06-27|INETCOM, RU
178.143.52.84|15962|178.143.0.0/16|SK|ripencc|2010-08-04|OSK-DNI Slovakia, SK
178.196.1.133|3303|178.196.0.0/15|CH|ripencc|2010-02-24|SWISSCOM Swisscom (Switzerland) Ltd, CH
178.222.10.99|8400|178.222.0.0/16|RS|ripencc|2010-03-31|TELEKOM-AS, RS
178.236.87.138|42560|178.236.80.0/20|BA|ripencc|2010-06-02|BA-TELEMACH-AS Telemach d.o.o. Sarajevo, BA
18.198.203.56|16509|18.198.0.0/15|US|arin|2019-10-07|AMAZON-02, US
181.230.219.66|10481|181.230.192.0/19|AR|lacnic|2013-10-30|Telecom Argentina S.A., AR
184.154.94.219|32475|184.154.0.0/16|US|arin|2010-06-21|SINGLEHOP-LLC, US
185.159.81.162|14576|185.159.81.0/24|NL|ripencc|2016-07-12|HOSTING-SOLUTIONS, US
185.228.235.25|64439|185.228.235.0/24|RU|ripencc|2017-10-30|ITOS-AS, RU
185.26.28.173|31415|185.26.28.0/24|RU|ripencc|2013-05-14|SVSCOMM-AS, RU
185.95.219.53|39540|185.95.219.0/24|CH|ripencc|2015-04-13|COMMUNITYRACK-RMA, CH
188.106.145.97|3209|188.96.0.0/12|DE|ripencc|2009-01-20|VODANET International IP-Backbone of Vodafone, DE
188.127.229.105|56694|188.127.224.0/20|RU|ripencc|2009-08-06|DHUB, RU
190.177.95.164|22927|190.176.0.0/15|AR|lacnic|2008-03-11|Telefonica de Argentina, AR
192.166.219.200|41508|192.166.216.0/22|PL|ripencc|2011-03-03|PL-IWACOM-AS, PL
193.29.187.74|51177|193.29.187.0/24|RO|ripencc|2003-12-01|THCPROJECTS, RO
193.84.116.22|2852|193.84.116.0/23|CZ|ripencc|1993-09-01|CESNET2, CZ
195.211.161.124|44341|195.211.161.0/24|RU|ripencc|2009-10-20|SEVONLINE, RU
198.144.141.16|55900|198.144.128.0/20|JP|apnic|1999-12-03|GLBB-JP GLBB Japan KK, JP
199.247.7.208|20473|199.247.0.0/21|US|ripencc|1996-04-09|AS-CHOOPA, US
200.58.109.75|27823|200.58.109.0/24|AR|lacnic|2008-05-21|Dattatec.com, AR
206.252.192.12|8002|206.252.192.0/19|US|arin|1996-08-12|STEALTH, US
208.73.156.62|40447|208.73.156.0/22|US|arin|2017-02-08|SKYHAWK-GROUP, US
209.6.50.76|6079|209.6.0.0/16|US|arin|1996-12-20|RCN-AS, US
212.133.211.75|8386|212.133.208.0/20|TR|ripencc|1999-06-21|KOCNET, TR
212.227.211.87|8560|212.227.0.0/16|DE|ripencc|1998-09-10|IONOS-AS This is the joint network for IONOS, Fasthosts, Arsys, 1&1 Mail and Media and 1&1 Telecom. Formerly known as 1&1 Internet SE., DE
212.51.146.9|13030|212.51.144.0/20|CH|ripencc|2008-05-06|INIT7, CH
216.115.227.160|11668|216.115.224.0/20|US|arin|1998-11-30|WCI-NET, US
217.119.148.241|31124|217.119.144.0/20|CH|ripencc|2004-03-03|SEFANET-AS Sefanet, Aubonne, Switzerland, CH
24.37.3.26|5769|24.37.0.0/18|CA|arin|2004-02-10|VIDEOTRON, CA
24.93.121.123|10796|24.93.96.0/19|US|arin|1997-05-02|TWC-10796-MIDWEST, US
3.250.188.245|16509|3.248.0.0/13|US|arin|2018-06-25|AMAZON-02, US
3.97.201.205|16509|3.96.0.0/15|US|arin|2017-12-20|AMAZON-02, US
31.201.236.49|50266|31.201.0.0/16|NL|ripencc|2011-04-28|TMOBILE-THUIS, NL
34.125.72.57|15169|34.124.0.0/14|US|arin|2018-09-28|GOOGLE, US
34.248.201.207|16509|34.248.0.0/13|US|arin|2016-09-12|AMAZON-02, US
34.90.103.131|15169|34.88.0.0/14|US|arin|2018-09-28|GOOGLE, US
34.90.104.47|15169|34.88.0.0/14|US|arin|2018-09-28|GOOGLE, US
35.166.238.70|16509|35.160.0.0/13|US|arin|2016-08-09|AMAZON-02, US
35.204.114.205|15169|35.204.0.0/15|US|arin|2017-03-21|GOOGLE, US
35.228.2.58|15169|35.228.0.0/14|US|arin|2017-09-29|GOOGLE, US
35.228.251.146|15169|35.228.0.0/14|US|arin|2017-09-29|GOOGLE, US
38.242.12.100|64249|38.242.12.0/24|US|arin|1991-04-16|ENDOFFICE, US
46.229.170.218|39572|46.229.160.0/20|NL|ripencc|2011-02-17|ADVANCEDHOSTERS-AS, NL
5.135.178.216|16276|5.135.0.0/16|FR|ripencc|2012-07-06|OVH, FR
5.188.33.194|199524|5.188.33.0/24|LU|ripencc|2012-08-09|GCORE, LU
50.4.203.45|12083|50.4.192.0/20|US|arin|2010-08-02|WOW-INTERNET, US
51.174.206.76|29695|51.174.0.0/15|NO|ripencc|1993-09-01|ALTIBOX_AS Norway, NO
51.91.16.125|16276|51.91.0.0/16|FR|ripencc|1993-09-01|OVH, FR
52.204.182.74|14618|52.200.0.0/13|US|arin|2015-09-02|AMAZON-AES, US
52.44.68.110|14618|52.44.0.0/15|US|arin|1991-12-19|AMAZON-AES, US
54.187.117.98|16509|54.186.0.0/15|US|arin|2014-10-23|AMAZON-02, US
54.66.33.50|16509|54.66.0.0/17|US|arin|2014-06-20|AMAZON-02, US
58.185.69.243|3758|58.185.0.0/16|SG|apnic|2005-06-30|SINGNET SingNet, SG
62.138.206.160|61157|62.138.192.0/20|DE|ripencc|2000-09-19|PLUSSERVER-ASN1, DE
62.15.102.4|12479|62.15.0.0/16|ES|ripencc|2000-07-20|UNI2-AS, ES
62.210.132.30|12876|62.210.0.0/16|FR|ripencc|2000-10-26|Online SAS, FR
62.251.107.169|3265|62.251.0.0/17|NL|ripencc|2001-01-03|XS4ALL-NL Amsterdam, NL
66.114.33.90|13831|66.114.32.0/20|US|arin|2003-09-30|POGOZONE-OA, US
66.96.199.249|56300|66.96.199.0/24|SG|apnic|2001-11-01|MYREPUBLIC-SG MyRepublic Ltd., SG
67.205.150.223|14061|67.205.144.0/20|US|arin|2016-04-12|DIGITALOCEAN-ASN, US
70.110.26.52|701|70.110.16.0/20|US|arin|2004-09-21|UUNET, US
72.174.254.198|33588|72.174.0.0/15|US|arin|2005-12-06|BRESNAN-33588, US
72.195.158.184|22773|72.195.128.0/19|US|arin|2005-08-03|ASN-CXA-ALL-CCI-22773-RDC, US
75.110.141.18|19108|75.110.0.0/16|US|arin|2006-07-18|SUDDENLINK-COMMUNICATIONS, US
75.129.34.75|20115|75.129.32.0/20|US|arin|2006-07-17|CHARTER-20115, US
78.108.102.8|8251|78.108.96.0/20|CZ|ripencc|2007-06-18|NFX_ZSPO, CZ
78.63.73.155|8764|78.63.72.0/22|LT|ripencc|2007-03-21|TELIA-LIETUVA, LT
78.99.129.242|6855|78.98.0.0/15|SK|ripencc|2007-05-02|SK-TELEKOM Slovak Telekom / T-Mobile CZ, SK
8.34.30.253|16695|8.34.28.0/22|US|arin|1992-12-01|CXP-DATACENTERS, US
80.1.31.151|5089|80.1.0.0/17|GB|ripencc|2001-04-25|NTL, GB
82.199.102.10|30784|82.199.96.0/19|RU|ripencc|2003-12-01|ISKRATELECOM-AS SEVEN-SKY, RU
85.14.79.26|31242|85.14.64.0/18|PL|ripencc|2005-04-06|TKPSA-AS, PL
85.195.54.110|35706|85.195.0.0/18|SE|ripencc|2005-01-04|NAO, SE
87.206.227.194|6830|87.206.0.0/16|PL|ripencc|2005-07-11|LIBERTYGLOBAL Liberty Global (formerly UPC Broadband Holding, aka AORTA), NL
88.98.88.158|13037|88.98.64.0/19|GB|ripencc|2005-08-03|ZEN-AS Zen Internet - UK, GB
89.115.120.43|12353|89.114.0.0/15|PT|ripencc|2006-04-10|VODAFONE-PT Vodafone Portugal, PT
89.177.34.147|6830|89.177.0.0/16|CZ|ripencc|2006-03-16|LIBERTYGLOBAL Liberty Global (formerly UPC Broadband Holding, aka AORTA), NL
89.216.21.96|31042|89.216.0.0/17|RS|ripencc|2006-06-21|SERBIA-BROADBAND-AS Serbia BroadBand-Srpske Kablovske mreze d.o.o., RS
89.250.28.9|44206|89.250.16.0/20|RU|ripencc|2006-07-31|SIBSET-KRS-AS, RU
91.224.20.71|60562|91.224.20.0/23|IR|ripencc|2019-10-03|BEHDASHT-IT, IR
91.87.96.138|47377|91.87.96.0/19|BE|ripencc|2006-08-15|ORANGE_BELGIUM_SA KPN Belgium Business NV has been acquired by Mobistar, BE
91.92.144.166|44901|91.92.144.0/24|CY|ripencc|2006-08-15|BELCLOUD, BG
93.103.94.40|34779|93.103.64.0/19|SI|ripencc|2008-03-14|T-2-AS AS set propagated by T-2 d.o.o., SI
93.190.142.127|49981|93.190.140.0/22|NL|ripencc|2008-05-16|WORLDSTREAM, NL
93.202.130.206|3320|93.192.0.0/10|DE|ripencc|2008-02-12|DTAG Internet service provider operations, DE
94.113.116.24|6830|94.113.0.0/16|CZ|ripencc|2008-07-09|LIBERTYGLOBAL Liberty Global (formerly UPC Broadband Holding, aka AORTA), NL
94.247.134.77|48716|94.247.134.0/24|KZ|ripencc|2008-12-03|PSKZ-ALA, KZ
95.216.98.26|24940|95.216.0.0/16|DE|ripencc|2009-02-24|HETZNER-AS, DE
95.93.218.249|2860|95.93.192.0/18|PT|ripencc|2008-12-15|NOS_COMUNICACOES, PT
96.247.202.109|701|96.247.192.0/19|US|arin|2006-12-29|UUNET, US
98.7.52.103|12271|98.7.0.0/17|US|arin|2007-01-29|TWC-12271-NYC, US
