# bitcoin dns seeds and whois results
IP Address|ASN|BGP Prefix|CC|Registry|Allocated|AS Name
104.243.44.219|23470|104.243.44.0/24|US|arin|2014-11-13|RELIABLESITE, US
108.56.134.33|701|108.56.0.0/16|US|arin|2009-06-05|UUNET, US
109.110.81.90|35816|109.110.64.0/19|RU|ripencc|2009-11-19|SEVSTAR Sevastopol, Russia, RU
109.199.241.148|25374|109.199.241.0/24|BG|ripencc|2010-01-26|ESCOMBG-AS Local Internet Service Provider Bulgaria, BG
109.207.79.248|12400|109.207.79.0/24|IL|ripencc|2018-08-30|PARTNER-AS, IL
128.199.4.104|14061|128.199.0.0/20|GB|ripencc|1999-04-12|DIGITALOCEAN-ASN, US
13.49.240.49|16509|13.48.0.0/15|US|arin|2018-07-11|AMAZON-02, US
13.49.72.71|16509|13.48.0.0/15|US|arin|2018-07-11|AMAZON-02, US
13.53.170.167|16509|13.53.0.0/16|US|arin|2016-08-09|AMAZON-02, US
130.61.30.186|31898|130.61.16.0/20|US|arin|2016-10-31|ORACLE-BMC-31898, US
149.28.39.130|20473|149.28.32.0/19|US|arin|2018-05-04|AS-CHOOPA, US
15.237.37.136|16509|15.236.0.0/15|US|arin|2018-09-27|AMAZON-02, US
151.106.38.210|34088|151.106.32.0/20|DE|ripencc|1991-05-30|GDY-FRANCE, DE
159.2.165.130|855|159.2.160.0/20|CA|arin|2016-11-02|CANET-ASN-4, CA
159.69.139.246|24940|159.69.0.0/16|DE|ripencc|1992-03-13|HETZNER-AS, DE
172.105.21.216|63949|172.105.0.0/19|US|arin|2015-06-19|LINODE-AP Linode, LLC, US
178.124.162.209|6697|178.124.162.0/24|BY|ripencc|2009-12-10|BELPAK-AS BELPAK, BY
178.191.251.132|8447|178.188.0.0/14|AT|ripencc|2010-02-08|A1TELEKOM-AT A1 Telekom Austria AG, AT
178.236.87.138|42560|178.236.80.0/20|BA|ripencc|2010-06-02|BA-TELEMACH-AS Telemach d.o.o. Sarajevo, BA
183.88.223.208|45629|183.88.0.0/16|TH|apnic|2009-11-13|JASTEL-NETWORK-TH-AP JasTel Network International Gateway, TH
185.104.180.7|48881|185.104.180.0/22|RO|ripencc|2015-06-15|DATA-NODE-AS, RO
185.155.96.203|202759|185.155.96.0/24|EE|ripencc|2016-06-08|WHS, EE
185.211.59.50|39368|185.211.59.0/24|IR|ripencc|2017-07-03|SERVER, IR
185.4.24.199|201508|185.4.24.0/22|GB|ripencc|2012-09-25|PUREBROADBAND, GB
185.56.81.8|200699|185.56.81.0/24|SC|ripencc|2014-05-01|Datashield, Inc., SC
185.59.101.51|201492|185.59.101.0/24|DE|ripencc|2014-05-30|NETVERSOR-4, DE
186.149.143.2|28118|186.149.140.0/22|DO|lacnic|2011-06-24|ALTICE DOMINICANA S.A., DO
186.67.164.77|6471|186.67.128.0/17|CL|lacnic|2011-05-13|ENTEL CHILE S.A., CL
188.134.74.188|41733|188.134.0.0/17|RU|ripencc|2009-04-27|ZTELECOM-AS, RU
188.166.250.4|14061|188.166.240.0/20|US|ripencc|2009-06-05|DIGITALOCEAN-ASN, US
188.27.168.194|8708|188.27.0.0/16|RO|ripencc|2009-02-11|RCS-RDS 73-75 Dr. Staicovici, RO
190.17.51.132|10318|190.17.32.0/19|AR|lacnic|2006-12-08|Telecom Argentina S.A., AR
190.2.146.90|49981|190.2.144.0/20|CW|lacnic|2006-04-28|WORLDSTREAM, NL
192.227.80.83|13886|192.227.80.0/22|US|arin|2017-01-30|CLOUD-SOUTH, US
193.138.218.72|39351|193.138.216.0/22|SE|ripencc|2006-02-06|ESAB-AS, SE
193.189.190.123|5603|193.189.176.0/20|SI|ripencc|1996-04-19|SIOL-NET Telekom Slovenije d.d., SI
193.222.130.14|29208|193.222.130.0/24|CZ|ripencc|2005-08-17|DIALTELECOM-AS Dial Telecom a.s., CZ
194.145.199.26|34715|194.145.199.0/24|UA|ripencc|2005-03-21|AMRON-AS, UA
195.244.209.70|8301|195.244.192.0/19|GI|ripencc|1997-04-14|GIBTELECOMNET, GI
2.201.135.143|3209|2.200.0.0/14|DE|ripencc|2010-11-18|VODANET International IP-Backbone of Vodafone, DE
201.128.150.225|8151|201.128.150.0/24|MX|lacnic|2003-07-08|Uninet S.A. de C.V., MX
204.60.23.203|7018|204.60.0.0/16|US|arin|1994-06-16|ATT-INTERNET4, US
208.102.7.153|6181|208.102.0.0/17|US|arin|2006-03-01|FUSE-NET, US
208.110.99.105|25668|208.110.96.0/19|CA|arin|2007-04-11|CIPHERKEY, CA
212.115.108.181|210329|212.115.108.0/24|US|ripencc|2018-11-05|CLOUDWEBMANAGE-UK-1, US
213.174.156.71|39572|213.174.128.0/19|NL|ripencc|2008-01-17|ADVANCEDHOSTERS-AS, NL
213.189.185.198|12392|213.189.176.0/20|BE|ripencc|2001-10-10|ASBRUTELE VOO, BE
216.157.21.35|13768|216.157.0.0/18|CA|arin|1998-12-16|COGECO-PEER1, CA
23.226.1.76|23881|23.226.1.0/24|HK|apnic|2013-09-09|UDOMAIN-AS-AP UDomain Web Hosting Company Ltd, HK
24.121.34.27|19108|24.121.0.0/17|US|arin|2001-09-20|SUDDENLINK-COMMUNICATIONS, US
24.141.144.2|7992|24.141.0.0/16|CA|arin|1999-05-03|COGECOWAVE, CA
3.104.224.80|16509|3.104.0.0/14|US|arin|2017-12-20|AMAZON-02, US
3.96.190.111|16509|3.96.0.0/15|US|arin|2017-12-20|AMAZON-02, US
31.14.201.156|29119|31.14.200.0/21|ES|ripencc|2011-04-18|SERVIHOSTING-AS AireNetworks, ES
34.195.96.196|14618|34.192.0.0/12|US|arin|2016-09-12|AMAZON-AES, US
34.64.144.84|139070|34.64.0.0/16|US|arin|2018-09-28|GOOGLE-AS-AP Google Asia Pacific Pte. Ltd., SG
34.64.209.210|139070|34.64.0.0/16|US|arin|2018-09-28|GOOGLE-AS-AP Google Asia Pacific Pte. Ltd., SG
34.64.213.1|139070|34.64.0.0/16|US|arin|2018-09-28|GOOGLE-AS-AP Google Asia Pacific Pte. Ltd., SG
34.64.233.186|139070|34.64.0.0/16|US|arin|2018-09-28|GOOGLE-AS-AP Google Asia Pacific Pte. Ltd., SG
34.64.249.186|139070|34.64.0.0/16|US|arin|2018-09-28|GOOGLE-AS-AP Google Asia Pacific Pte. Ltd., SG
34.86.185.91|15169|34.84.0.0/14|US|arin|2018-09-28|GOOGLE, US
35.177.153.69|16509|35.176.0.0/15|US|arin|2016-08-09|AMAZON-02, US
35.190.200.254|15169|35.190.192.0/19|US|arin|2016-10-11|GOOGLE, US
35.198.108.134|15169|35.198.0.0/16|US|arin|2017-03-21|GOOGLE, US
35.225.181.213|15169|35.224.0.0/14|US|arin|2017-09-29|GOOGLE, US
39.105.92.8|37963|39.104.0.0/15|CN|apnic|2011-04-05|CNNIC-ALIBABA-CN-NET-AP Hangzhou Alibaba Advertising Co.,Ltd., CN
45.9.149.101|49447|45.9.149.0/24|DM|ripencc|2019-04-18|NICEIT, DM
46.229.238.187|29405|46.229.224.0/20|SK|ripencc|2011-02-21|VNET-AS, SK
46.4.71.70|24940|46.4.0.0/16|DE|ripencc|2010-08-19|HETZNER-AS, DE
47.75.202.172|45102|47.75.128.0/17|US|arin|2016-03-17|CNNIC-ALIBABA-US-NET-AP Alibaba (US) Technology Co., Ltd., CN
5.102.146.99|59414|5.102.144.0/21|CH|ripencc|2012-06-27|CLOUDSCALE, CH
5.133.65.82|15440|5.133.65.0/24|LT|ripencc|2018-11-09|BALTNETA Customers AS, LT
5.254.101.226|3223|5.254.96.0/21|GB|ripencc|2012-09-13|VOXILITY, GB
5.39.74.166|16276|5.39.0.0/17|FR|ripencc|2012-05-15|OVH, FR
50.34.39.72|27017|50.34.0.0/16|US|arin|2010-09-24|ZIPLY-FIBER-LEGACY-ASN, US
50.5.46.195|6181|50.5.0.0/17|US|arin|2010-09-09|FUSE-NET, US
51.83.180.241|16276|51.83.0.0/16|FR|ripencc|1993-09-01|OVH, FR
54.84.74.81|14618|54.84.0.0/15|US|arin|2013-11-25|AMAZON-AES, US
60.109.35.100|17676|60.109.0.0/16|JP|apnic|2004-05-20|GIGAINFRA Softbank BB Corp., JP
62.138.206.160|61157|62.138.192.0/20|DE|ripencc|2000-09-19|PLUSSERVER-ASN1, DE
68.105.80.207|22773|68.105.64.0/18|US|arin|2002-02-04|ASN-CXA-ALL-CCI-22773-RDC, US
68.193.247.240|6128|68.192.0.0/14|US|arin|2003-01-29|CABLE-NET-1, US
69.146.151.248|33588|69.146.0.0/16|US|arin|2003-05-13|BRESNAN-33588, US
71.161.78.198|12175|71.161.76.0/22|US|arin|2005-06-01|YELMNET, US
77.95.141.193|28716|77.95.136.0/21|IT|ripencc|2007-06-07|RETELIT-AS Internet Service Provider, IT
78.119.180.62|8228|78.112.0.0/12|FR|ripencc|2007-05-03|CEGETEL-AS, FR
78.72.228.239|3301|78.64.0.0/12|SE|ripencc|2007-03-09|TELIANET-SWEDEN Telia Company, SE
8.210.74.141|45102|8.210.0.0/17|SG|apnic|1992-12-01|CNNIC-ALIBABA-US-NET-AP Alibaba (US) Technology Co., Ltd., CN
81.102.36.16|5089|81.102.0.0/15|GB|ripencc|2002-06-14|NTL, GB
81.7.17.202|35366|81.7.0.0/19|DE|ripencc|2009-09-18|ISPPRO-AS ISPPRO-AS covers the networks of ISPpro, DE
82.193.102.228|25521|82.193.96.0/19|UA|ripencc|2003-10-08|ASN-ASIPN, UA
82.200.205.30|9198|82.200.204.0/22|KZ|ripencc|2003-09-18|KAZTELECOM-AS, KZ
82.221.128.81|50613|82.221.128.0/19|IS|ripencc|2003-12-11|THORDC-AS, IS
82.228.6.131|12322|82.224.0.0/12|FR|ripencc|2003-11-04|PROXAD, FR
83.151.238.65|51918|83.151.236.0/22|GB|ripencc|2004-03-30|CERBERUSNETWORKS-AS, GB
83.226.184.109|2119|83.226.0.0/15|SE|ripencc|2004-03-12|TELENOR-NEXTEL Telenor Norge AS, NO
83.37.216.102|3352|83.37.0.0/16|ES|ripencc|2003-12-02|TELEFONICA_DE_ESPANA, ES
84.188.89.241|3320|84.128.0.0/10|DE|ripencc|2004-03-10|DTAG Internet service provider operations, DE
85.163.53.75|28725|85.163.0.0/16|CZ|ripencc|2004-10-25|CETIN-AS, CZ
85.190.0.5|29686|85.190.0.0/19|DE|ripencc|2004-12-13|PROBENETWORKS-AS, DE
85.195.54.110|35706|85.195.0.0/18|SE|ripencc|2005-01-04|NAO, SE
87.125.107.232|12430|87.125.0.0/16|ES|ripencc|2005-08-08|VODAFONE_ES, ES
87.182.231.191|3320|87.128.0.0/10|DE|ripencc|2006-03-30|DTAG Internet service provider operations, DE
88.12.47.65|3352|88.12.0.0/16|ES|ripencc|2005-07-13|TELEFONICA_DE_ESPANA, ES
88.86.125.50|39392|88.86.96.0/19|CZ|ripencc|2006-02-14|SUPERNETWORK (^_^)/, CZ
89.28.117.31|31252|89.28.0.0/17|MD|ripencc|2006-06-29|STARNET-AS, MD
90.191.220.38|3249|90.190.0.0/15|EE|ripencc|2006-11-14|ESTPAK, EE
91.215.91.254|48078|91.215.91.0/24|RU|ripencc|2009-07-21|DAGOMYS-AS, RU
91.98.97.90|60976|91.98.97.0/24|IR|ripencc|2006-09-11|POL, IR
92.111.126.154|6830|92.110.0.0/15|NL|ripencc|2007-10-23|LIBERTYGLOBAL Liberty Global (formerly UPC Broadband Holding, aka AORTA), NL
93.177.82.226|213111|93.177.82.0/24|IT|ripencc|2020-06-09|DONE, IT
93.187.182.176|48124|93.187.180.0/22|RU|ripencc|2008-07-22|COMSTAR-REGIONS-TVER, RU
93.38.127.199|12874|93.38.0.0/15|IT|ripencc|2008-02-25|FASTWEB, IT
93.57.81.162|12874|93.56.0.0/14|IT|ripencc|2008-02-25|FASTWEB, IT
94.242.213.40|5577|94.242.213.0/24|LU|ripencc|2008-10-21|ROOT, LU
94.26.49.71|48452|94.26.49.0/24|BG|ripencc|2008-06-11|TRAFFIC-NET, BG
