# https://chainz.cryptoid.info/ and whois results
# 42-coin
IP Address|Subver|Version|ASN|BGP Prefix|CC|Registry|Allocated|AS Name
121.215.2.235|/Satoshi:0.11.0.1/|60019|1221|121.208.0.0/12|AU|apnic|2007-02-09|ASN-TELSTRA Telstra Corporation Ltd, AU
135.181.32.80|/Satoshi:0.11.0.4/|60019|24940|135.181.0.0/16|DE|ripencc|1996-04-30|HETZNER-AS, DE
139.99.196.131|/Satoshi:0.11.0/|60019|16276|139.99.128.0/17|CA|arin|2016-09-09|OVH, FR
147.135.210.113|/Satoshi:0.11.0/|60019|16276|147.135.128.0/17|FR|ripencc|2017-03-22|OVH, FR
150.143.207.111|/Satoshi:0.7.7.1/|60019|6871|150.143.0.0/16|US|arin|1991-05-16|PLUSNET UK Internet Service Provider, GB
173.2.195.19|/Satoshi:0.11.0/|60019|6128|173.2.0.0/15|US|arin|2008-05-12|CABLE-NET-1, US
173.212.202.33|/Satoshi:0.7.6.8/|60018|51167|173.212.192.0/19|DE|ripencc|2009-10-26|CONTABO, DE
173.216.88.59|/Satoshi:0.11.0.4/|60019|19108|173.216.0.0/16|US|arin|2009-09-16|SUDDENLINK-COMMUNICATIONS, US
176.14.215.36|/Satoshi:0.11.0.4/|60019|8402|176.14.0.0/15|RU|ripencc|2011-05-18|CORBINA-AS OJSC _Vimpelcom_, RU
176.76.243.33|/Satoshi:0.11.0.6/|60019|3212|176.76.0.0/16|SI|ripencc|2011-06-15|TELEMACH Broadband Access & Carrier Services, SI
185.217.117.248|/Satoshi:0.11.0.1/|60019|62240|185.217.117.0/24|NL|ripencc|2017-08-14|CLOUVIDER Clouvider - Global ASN, GB
185.217.117.251|/Satoshi:0.11.0.1/|60019|62240|185.217.117.0/24|NL|ripencc|2017-08-14|CLOUVIDER Clouvider - Global ASN, GB
185.237.216.209|/Satoshi:0.10.0.1/|60019|212994|185.237.216.0/24|UA|ripencc|2017-12-20|EUROLINK, UA
185.92.25.121|/Satoshi:0.11.0.1/|60019|13213|185.92.25.0/24|NL|ripencc|2015-03-16|UK2NET-AS, GB
188.78.63.16|/Satoshi:0.11.0/|60019|12479|188.78.62.0/23|ES|ripencc|2011-01-04|UNI2-AS, ES
194.110.114.188|/Satoshi:0.10.0.1/|60019|9009|194.110.114.0/24|RO|ripencc|2018-05-24|M247, GB
198.144.154.35|/Satoshi:0.11.0.1/|60019|7040|198.144.144.0/20|CA|arin|2020-01-22|NETMINDERS, CA
202.80.212.198|/Satoshi:0.11.0/|60019|17670|202.80.212.0/24|ID|apnic|2003-10-10|MNCKABELMEDIACOM-ID PT. MNC Kabel Mediacom, ID
212.59.242.73|/Satoshi:0.7.6.8/|60018|39869|212.59.224.0/19|PL|ripencc|2008-07-14|LIVENET-, PL
217.138.209.76|/Satoshi:0.10.0.1/|60019|9009|217.138.209.0/24|GB|ripencc|2001-01-31|M247, GB
37.201.119.183|/Satoshi:0.11.0.4/|60019|6830|37.201.0.0/17|DE|ripencc|2012-03-22|LIBERTYGLOBAL Liberty Global (formerly UPC Broadband Holding, aka AORTA), NL
37.201.225.58|/Satoshi:0.10.0.3/|60019|6830|37.201.128.0/17|DE|ripencc|2012-03-22|LIBERTYGLOBAL Liberty Global (formerly UPC Broadband Holding, aka AORTA), NL
39.99.142.121|/Satoshi:0.11.0.4/|60019|37963|39.96.0.0/14|CN|apnic|2011-04-05|CNNIC-ALIBABA-CN-NET-AP Hangzhou Alibaba Advertising Co.,Ltd., CN
46.101.235.143|/Satoshi:0.7.7.1/|60019|14061|46.101.128.0/17|US|ripencc|2010-06-24|DIGITALOCEAN-ASN, US
49.181.16.132|/Satoshi:0.11.0.3/|60019|4804|49.181.0.0/17|AU|apnic|2010-12-02|MPX-AS Microplex PTY LTD, AU
5.105.150.196|/Satoshi:0.7.6.8/|60018|43554|5.105.148.0/22|UA|ripencc|2012-06-28|CDS-AS, UA
50.32.194.176|/Satoshi:0.7.7.1/|60019|5650|50.32.0.0/12|US|arin|2010-09-24|FRONTIER-FRTR, US
50.32.200.253|/Satoshi:0.7.7.1/|60019|5650|50.32.0.0/12|US|arin|2010-09-24|FRONTIER-FRTR, US
50.32.208.96|/Satoshi:0.7.7.1/|60019|5650|50.32.0.0/12|US|arin|2010-09-24|FRONTIER-FRTR, US
51.79.145.189|/Satoshi:0.11.0/|60019|16276|51.79.128.0/17|CA|arin|2019-01-10|OVH, FR
66.70.191.185|/Satoshi:0.11.0/|60019|16276|66.70.128.0/17|CA|arin|2017-02-13|OVH, FR
70.39.116.240|/Satoshi:0.10.0.1/|60019|46844|70.39.116.0/24|US|arin|2010-01-26|ST-BGP, US
70.39.81.167|/Satoshi:0.10.0.1/|60019|46844|70.39.81.0/24|US|arin|2010-01-26|ST-BGP, US
71.196.145.30|/Satoshi:0.7.7.1/|60019|7922|71.192.0.0/12|US|arin|2005-07-27|COMCAST-7922, US
75.142.217.207|/Satoshi:0.11.0/|60019|20115|75.142.192.0/19|US|arin|2006-07-17|CHARTER-20115, US
76.16.196.52|/Satoshi:0.10.0.1/|60019|7922|76.16.0.0/12|US|arin|2006-06-28|COMCAST-7922, US
84.249.51.136|/Satoshi:0.7.6.9/|60019|1759|84.248.0.0/14|FI|ripencc|2004-06-02|TSF-IP-CORE Telia Finland Oyj, FI
85.203.46.115|/Satoshi:0.11.0.1/|60019|13213|85.203.46.0/24|NL|ripencc|2005-01-12|UK2NET-AS, GB
88.131.213.108|/Satoshi:0.7.7.1/|60019|3246|88.131.0.0/16|SE|ripencc|2005-10-24|TDCSONG Tele2 Business (TDC Sweden), SE
91.246.151.238|/Satoshi:0.11.0.1/|60019|6712|91.246.144.0/21|UA|ripencc|2012-08-27|FORMAT-TV-AS, UA
91.250.27.86|/Satoshi:0.10.0/|60019|6712|91.250.24.0/21|UA|ripencc|2012-09-14|FORMAT-TV-AS, UA
92.40.174.220|/Satoshi:0.11.0.1/|60019|206067|92.40.174.0/23|GB|ripencc|2007-11-21|H3GUK, GB
92.40.174.223|/Satoshi:0.11.0.1/|60019|206067|92.40.174.0/23|GB|ripencc|2007-11-21|H3GUK, GB
92.40.174.227|/Satoshi:0.11.0.1/|60019|206067|92.40.174.0/23|GB|ripencc|2007-11-21|H3GUK, GB
92.40.174.231|/Satoshi:0.11.0.1/|60019|206067|92.40.174.0/23|GB|ripencc|2007-11-21|H3GUK, GB
92.40.175.38|/Satoshi:0.11.0.1/|60019|206067|92.40.174.0/23|GB|ripencc|2007-11-21|H3GUK, GB
92.40.175.40|/Satoshi:0.11.0.1/|60019|206067|92.40.174.0/23|GB|ripencc|2007-11-21|H3GUK, GB
92.40.175.41|/Satoshi:0.11.0.1/|60019|206067|92.40.174.0/23|GB|ripencc|2007-11-21|H3GUK, GB
92.40.175.43|/Satoshi:0.11.0.1/|60019|206067|92.40.174.0/23|GB|ripencc|2007-11-21|H3GUK, GB
92.40.175.44|/Satoshi:0.11.0.1/|60019|206067|92.40.174.0/23|GB|ripencc|2007-11-21|H3GUK, GB
94.130.220.87|/Satoshi:0.11.0.4/|60019|24940|94.130.0.0/16|DE|ripencc|2008-06-23|HETZNER-AS, DE
95.111.247.164|/Satoshi:0.10.0.4/|60019|51167|95.111.246.0/23|DE|ripencc|2008-12-30|CONTABO, DE
95.222.249.142|/Satoshi:0.11.0.1/|60019|6830|95.222.0.0/16|DE|ripencc|2009-03-24|LIBERTYGLOBAL Liberty Global (formerly UPC Broadband Holding, aka AORTA), NL
