# https://chainz.cryptoid.info/ and whois results
# CannabisCoin
IP Address|Subver|Version|ASN|BGP Prefix|CC|Registry|Allocated|AS Name
103.96.141.121|/Cannabiscoin:0.13.1/|70019|136805|103.96.141.0/24|AU|apnic|2017-07-07|NGVPL-AS-AP Next Generation Voice PTY LTD, AU
108.50.170.187|/Cannabiscoin:0.13.1/|70019|701|108.50.128.0/17|US|arin|2009-06-05|UUNET, US
115.166.128.140|/Cannabiscoin:0.13.1/|70019|45194|115.166.128.0/24|IN|apnic|2015-12-15|SIPL-AS Syscon Infoway Pvt. Ltd., IN
116.202.251.195|/Cannabiscoin:0.8.9/|70017|24940|116.202.0.0/16|DE|ripencc|2011-01-17|HETZNER-AS, DE
118.71.224.238|/Cannabiscoin:0.13.1/|70019|18403|118.71.224.0/20|VN|apnic|2007-08-08|FPT-AS-AP The Corporation for Financing & Promoting Technology, VN
129.107.121.105|/Cannabiscoin:0.13.1/|70019|18515|129.107.0.0/16|US|arin|1987-11-06|UTARLINGTON, US
134.17.155.20|/Cannabiscoin:0.13.1/|70019|25106|134.17.144.0/20|BY|ripencc|2011-11-03|MTSBY-AS, BY
136.32.141.74|/Cannabiscoin:0.13.1/|70019|16591|136.32.128.0/20|US|arin|2015-10-06|GOOGLE-FIBER, US
137.135.18.91|/Cannabiscoin:0.13.1/|70019|8075|137.135.0.0/16|US|arin|2011-06-22|MICROSOFT-CORP-MSN-AS-BLOCK, US
138.68.243.35|/Cannabiscoin:0.13.1/|70019|14061|138.68.240.0/20|US|arin|2016-01-26|DIGITALOCEAN-ASN, US
142.112.212.238|/Cannabiscoin:0.13.1/|70019|577|142.112.0.0/16|CA|arin|1993-04-05|BACOM, CA
144.91.77.184|/Cannabiscoin:0.13.1/|70019|51167|144.91.76.0/23|DE|ripencc|1990-11-20|CONTABO, DE
149.200.117.61|/Cannabiscoin:0.13.1/|70019|5483|149.200.0.0/17|HU|ripencc|2011-08-04|MAGYAR-TELEKOM-MAIN-AS Magyar Telekom Nyrt., HU
154.28.188.46|/Cannabiscoin:0.13.1/|70019|174|154.24.0.0/13|US|arin|1992-02-05|COGENT-174, US
155.138.151.42|/Cannabiscoin:0.13.1/|70019|20473|155.138.128.0/19|US|arin|2018-12-05|AS-CHOOPA, US
167.86.116.187|/Cannabiscoin:0.13.1/|70019|51167|167.86.116.0/23|DE|ripencc|1993-05-14|CONTABO, DE
176.27.172.42|/Satoshi:0.8.7/|70014|5607|176.24.0.0/14|GB|ripencc|2011-05-19|BSKYB-BROADBAND-AS, GB
176.76.241.74|/Cannabiscoin:0.13.1/|70019|3212|176.76.0.0/16|SI|ripencc|2011-06-15|TELEMACH Broadband Access & Carrier Services, SI
176.76.243.187|/Cannabiscoin:0.13.1/|70019|3212|176.76.0.0/16|SI|ripencc|2011-06-15|TELEMACH Broadband Access & Carrier Services, SI
178.218.100.104|/Cannabiscoin:0.13.1/|70019|49350|178.218.96.0/20|RU|ripencc|2010-04-07|TINET-AS, RU
178.63.9.83|/Cannabiscoin:0.13.1/|70019|24940|178.63.0.0/16|DE|ripencc|2010-03-02|HETZNER-AS, DE
178.79.84.197|/Cannabiscoin:0.13.1/|70019|3212|178.79.64.0/18|SI|ripencc|2010-05-07|TELEMACH Broadband Access & Carrier Services, SI
181.65.77.157|/Cannabiscoin:0.13.1/|70019|6147|181.65.64.0/19|PE|lacnic|2011-08-31|Telefonica del Peru S.A.A., PE
184.22.210.142|/Cannabiscoin:0.13.1/|70019|133481|184.22.208.0/22|TH|apnic|2001-11-01|AIS-FIBRE-AS-AP AIS Fibre, TH
184.22.215.65|/Cannabiscoin:0.13.1/|70019|133481|184.22.212.0/22|TH|apnic|2001-11-01|AIS-FIBRE-AS-AP AIS Fibre, TH
185.181.8.101|/Cannabiscoin:0.13.1/|70019|60781|185.181.8.0/24|NL|ripencc|2016-12-07|LEASEWEB-NL-AMS-01 Netherlands, NL
185.218.110.246|/Cannabiscoin:0.13.0/|70018|205439|185.218.108.0/22|RU|ripencc|2017-08-22|IPPARK-AS, RU
185.246.210.148|/Cannabiscoin:0.13.1/|70019|60068|185.246.210.0/24|CZ|ripencc|2018-02-16|CDN77, GB
188.254.215.199|/Cannabiscoin:0.13.0/|70018|43205|188.254.128.0/17|BG|ripencc|2011-02-18|BULSATCOM-BG-AS Sofia, BG
190.96.1.19|/Cannabiscoin:0.13.1/|70019|18822|190.96.1.0/24|CL|lacnic|2007-07-19|Manquehuenet, CL
194.160.80.214|/Cannabiscoin:0.13.1/|70019|2607|194.160.0.0/16|SK|ripencc|1995-05-03|SANET Slovak Academic Network, SK
213.161.14.118|/Cannabiscoin:0.13.1/|70019|3212|213.161.0.0/19|SI|ripencc|1999-12-23|TELEMACH Broadband Access & Carrier Services, SI
216.60.185.233|/Cannabiscoin:0.13.1/|70019|7018|216.60.0.0/14|US|arin|1998-08-27|ATT-INTERNET4, US
221.122.37.71|/Cannabiscoin:0.13.1/|70019|23724|221.122.32.0/20|CN|apnic|2003-07-07|CHINANET-IDC-BJ-AP IDC, China Telecommunications Corporation, CN
24.116.47.125|/Cannabiscoin:0.13.1/|70019|11492|24.116.47.0/24|US|arin|1996-09-25|CABLEONE, US
24.234.73.57|/Cannabiscoin:0.13.1/|70019|22773|24.234.0.0/17|US|arin|1997-07-22|ASN-CXA-ALL-CCI-22773-RDC, US
24.7.88.54|/Cannabiscoin:0.13.1/|70019|7922|24.0.0.0/12|US|arin|2003-10-06|COMCAST-7922, US
24.93.104.14|/Cannabiscoin:0.13.1/|70019|10796|24.93.96.0/19|US|arin|1997-05-02|TWC-10796-MIDWEST, US
31.131.191.130|/Cannabiscoin:0.13.1/|70019|56917|31.131.184.0/21|RU|ripencc|2011-06-09|DALTECH-AS, RU
31.25.241.224|/Cannabiscoin:0.13.1/|70019|39741|31.25.241.0/24|RU|ripencc|2011-03-10|DCE-AS, RU
39.106.249.79|/Satoshi:0.8.7.1/|70015|37963|39.106.0.0/15|CN|apnic|2011-04-05|CNNIC-ALIBABA-CN-NET-AP Hangzhou Alibaba Advertising Co.,Ltd., CN
47.155.229.117|/Cannabiscoin:0.13.1/|70019|5650|47.152.0.0/14|US|arin|2015-08-28|FRONTIER-FRTR, US
47.157.217.183|/Cannabiscoin:0.13.1/|70019|5650|47.157.0.0/16|US|arin|2015-08-28|FRONTIER-FRTR, US
47.35.165.35|/Cannabiscoin:0.13.1/|70019|20115|47.35.128.0/18|US|arin|2014-12-23|CHARTER-20115, US
5.188.104.245|/Cannabiscoin:0.13.1/|70019|199860|5.188.104.0/23|RU|ripencc|2012-08-09|SDN-AS, RU
51.174.185.253|/Cannabiscoin:0.13.1/|70019|29695|51.174.0.0/15|NO|ripencc|1993-09-01|ALTIBOX_AS Norway, NO
51.254.44.206|/Cannabiscoin:0.13.1/|70019|16276|51.254.0.0/15|FR|ripencc|1993-09-01|OVH, FR
51.38.57.53|/Cannabiscoin:0.13.1/|70019|16276|51.38.0.0/16|FR|ripencc|1993-09-01|OVH, FR
52.144.99.74|/Cannabiscoin:0.13.1/|70019|26077|52.144.99.0/24|US|arin|2016-09-07|NEXTLINK-TEXAS, US
52.39.232.122|/Cannabiscoin:0.13.1/|70019|16509|52.36.0.0/14|US|arin|2015-09-02|AMAZON-02, US
59.138.170.147|/Satoshi:0.8.7/|70014|2516|59.138.0.0/16|JP|apnic|2004-10-19|KDDI KDDI CORPORATION, JP
66.151.242.154|/Cannabiscoin:0.13.1/|70019|63018|66.151.242.0/24|US|arin|2001-07-13|DEDICATED, US
67.247.20.96|/Cannabiscoin:0.13.1/|70019|12271|67.247.0.0/18|US|arin|2008-02-27|TWC-12271-NYC, US
68.107.186.101|/Cannabiscoin:0.13.1/|70019|22773|68.107.184.0/21|US|arin|2002-02-04|ASN-CXA-ALL-CCI-22773-RDC, US
68.112.108.244|/Cannabiscoin:0.13.1/|70019|20115|68.112.104.0/21|US|arin|2002-03-14|CHARTER-20115, US
68.150.78.147|/Satoshi:0.8.7/|70014|6327|68.150.76.0/22|CA|arin|2002-06-03|SHAW, CA
69.250.88.184|/Cannabiscoin:0.13.1/|70019|7922|69.240.0.0/12|US|arin|2004-02-11|COMCAST-7922, US
70.120.101.31|/Cannabiscoin:0.13.1/|70019|11427|70.120.0.0/17|US|arin|2004-09-17|TWC-11427-TEXAS, US
70.123.252.204|/Cannabiscoin:0.13.1/|70019|11427|70.122.0.0/15|US|arin|2004-09-17|TWC-11427-TEXAS, US
70.188.210.110|/Cannabiscoin:0.13.0/|70018|22773|70.188.192.0/19|US|arin|2004-07-21|ASN-CXA-ALL-CCI-22773-RDC, US
71.238.229.151|/Cannabiscoin:0.13.1/|70019|7922|71.224.0.0/12|US|arin|2005-04-15|COMCAST-7922, US
72.191.35.176|/Cannabiscoin:0.13.1/|70019|11427|72.190.0.0/15|US|arin|2005-11-21|TWC-11427-TEXAS, US
77.182.112.136|/Cannabiscoin:0.13.1/|70019|6805|77.176.0.0/12|DE|ripencc|2006-11-17|TDDE-ASN1, DE
77.185.85.232|/Cannabiscoin:0.13.1/|70019|6805|77.176.0.0/12|DE|ripencc|2006-11-17|TDDE-ASN1, DE
78.29.32.227|/Cannabiscoin:0.13.1/|70019|8369|78.29.32.0/19|RU|ripencc|2007-09-20|INTERSVYAZ-AS 38-B, Komsomolsky prospekt, RU
79.252.125.11|/Cannabiscoin:0.13.1/|70019|3320|79.192.0.0/10|DE|ripencc|2007-06-06|DTAG Internet service provider operations, DE
80.192.231.205|/Cannabiscoin:0.13.1/|70019|5089|80.192.0.0/15|GB|ripencc|2001-09-26|NTL, GB
80.65.23.139|/Cannabiscoin:0.13.1/|70019|31257|80.65.16.0/21|RU|ripencc|2004-03-18|ORIONNET-NET, RU
81.14.52.56|/Cannabiscoin:0.13.1/|70019|42811|81.14.0.0/17|FR|ripencc|2010-04-20|HERAULT-TELECOM-AS, FR
82.73.33.160|/Satoshi:0.8.7/|70014|33915|82.72.0.0/15|NL|ripencc|2003-07-04|TNF-AS, NL
83.221.211.116|/Cannabiscoin:0.13.0/|70018|21479|83.221.192.0/19|RU|ripencc|2004-04-15|ROSTOV-TELEGRAF-AS, RU
84.17.49.239|/Cannabiscoin:0.13.1/|70019|60068|84.17.48.0/23|GB|ripencc|2004-07-23|CDN77, GB
85.115.220.69|/Cannabiscoin:0.13.1/|70019|48427|85.115.220.0/24|ES|ripencc|2018-10-09|VISOVISION-AS, ES
85.15.179.171|/Cannabiscoin:0.13.1/|70019|12389|85.15.128.0/18|RU|ripencc|2005-04-26|ROSTELECOM-AS, RU
85.19.25.38|/Cannabiscoin:0.13.1/|70019|3292|85.19.0.0/16|NO|ripencc|2005-03-16|TDC TDC A/S, DK
85.26.241.181|/Cannabiscoin:0.13.1/|70019|31195|85.26.241.0/24|RU|ripencc|2005-03-10|MF-DV-AS, RU
85.29.228.48|/Cannabiscoin:0.13.1/|70019|3249|85.29.192.0/18|EE|ripencc|2005-05-20|ESTPAK, EE
90.203.186.193|/Cannabiscoin:0.13.1/|70019|5607|90.192.0.0/11|GB|ripencc|2006-05-31|BSKYB-BROADBAND-AS, GB
92.249.226.232|/Cannabiscoin:0.13.1/|70019|20845|92.249.128.0/17|HU|ripencc|2007-11-15|DIGICABLE, HU
93.36.222.44|/Cannabiscoin:0.13.1/|70019|12874|93.36.0.0/15|IT|ripencc|2008-02-25|FASTWEB, IT
95.111.247.164|/Cannabiscoin:0.13.1/|70019|51167|95.111.246.0/23|DE|ripencc|2008-12-30|CONTABO, DE
95.216.46.126|/Cannabiscoin:0.13.1/|70019|24940|95.216.0.0/16|DE|ripencc|2009-02-24|HETZNER-AS, DE
95.79.35.133|/Cannabiscoin:0.13.1/|70019|42682|95.79.0.0/16|RU|ripencc|2008-12-10|ERTH-NNOV-AS, RU
seed.cannabiscoin.net|/Cannabiscoin:0.13.1/|70019||||||
seed2.cannabiscoin.net|/Cannabiscoin:0.13.1/|70019||||||
