# https://chainz.cryptoid.info/ and whois results
# CannabisCoin
IP Address|Subver|Version|ASN|BGP Prefix|CC|Registry|Allocated|AS Name
108.249.111.189|/Satoshi:0.8.9/|70017|7018|108.192.0.0/10|US|arin|2011-01-12|ATT-INTERNET4, US
109.150.138.49|/Cannabiscoin:0.13.1/|70019|2856|109.144.0.0/12|GB|ripencc|2009-08-06|BT-UK-AS BTnet UK Regional network, GB
109.22.15.31|/Cannabiscoin:0.13.1/|70019|15557|109.0.0.0/11|FR|ripencc|2009-08-13|LDCOMNET, FR
109.86.13.239|/Cannabiscoin:0.13.1/|70019|13188|109.86.13.0/24|UA|ripencc|2009-08-20|TRIOLAN, UA
116.202.251.195|/Cannabiscoin:0.8.9/|70017|24940|116.202.0.0/16|DE|ripencc|2011-01-17|HETZNER-AS, DE
12.13.232.122|/Satoshi:0.8.9/|70017|7018|12.0.0.0/9|US|arin|1983-08-23|ATT-INTERNET4, US
124.157.91.222|/Cannabiscoin:0.13.1/|70019|24324|124.157.64.0/19|NZ|apnic|2006-04-04|KORDIA-TRANSIT-AS-AP Kordia Limited, NZ
134.191.249.5|/Cannabiscoin:0.13.1/|70019|4983|134.191.249.0/24|GB|ripencc|1995-11-25|INTEL-SC-AS, US
136.32.141.74|/Cannabiscoin:0.13.1/|70019|16591|136.32.128.0/20|US|arin|2015-10-06|GOOGLE-FIBER, US
137.135.18.91|/Cannabiscoin:0.13.1/|70019|8075|137.135.0.0/16|US|arin|2011-06-22|MICROSOFT-CORP-MSN-AS-BLOCK, US
138.68.254.94|/Cannabiscoin:0.13.0/|70018|14061|138.68.240.0/20|US|arin|2016-01-26|DIGITALOCEAN-ASN, US
144.91.77.184|/Cannabiscoin:0.13.1/|70019|51167|144.91.76.0/23|DE|ripencc|1990-11-20|CONTABO, DE
155.138.151.42|/Cannabiscoin:0.13.1/|70019|20473|155.138.128.0/19|US|arin|2018-12-05|AS-CHOOPA, US
167.86.116.187|/Cannabiscoin:0.13.1/|70019|51167|167.86.116.0/23|DE|ripencc|1993-05-14|CONTABO, DE
174.99.157.66|/Cannabiscoin:0.13.1/|70019|11426|174.98.0.0/15|US|arin|2009-02-26|TWC-11426-CAROLINAS, US
176.230.70.218|/Cannabiscoin:0.13.1/|70019|12400|176.230.0.0/16|IL|ripencc|2011-12-01|PARTNER-AS, IL
176.31.255.61|/Cannabiscoin:0.13.1/|70019|16276|176.31.0.0/16|FR|ripencc|2011-05-20|OVH, FR
176.52.34.229|/Cannabiscoin:0.13.1/|70019|29194|176.52.32.0/19|RU|ripencc|2011-05-25|ASN-TVT Kazan, Tatarstan, Russia, RU
176.9.9.210|/Cannabiscoin:0.13.1/|70019|24940|176.9.0.0/16|DE|ripencc|2011-05-17|HETZNER-AS, DE
178.63.9.83|/Cannabiscoin:0.13.1/|70019|24940|178.63.0.0/16|DE|ripencc|2010-03-02|HETZNER-AS, DE
178.79.78.142|/Cannabiscoin:0.13.1/|70019|3212|178.79.64.0/18|SI|ripencc|2010-05-07|TELEMACH Broadband Access & Carrier Services, SI
178.95.86.39|/Cannabiscoin:0.13.1/|70019|6849|178.95.86.0/23|UA|ripencc|2009-12-15|UKRTELNET, UA
185.151.2.242|/Cannabiscoin:0.13.1/|70019|57248|185.151.0.0/22|SK|ripencc|2016-05-06|WISPER-AS, SK
185.181.8.101|/Cannabiscoin:0.13.1/|70019|60781|185.181.8.0/24|GI|ripencc|2016-12-07|LEASEWEB-NL-AMS-01 Netherlands, NL
185.219.6.253|/Cannabiscoin:0.13.1/|70019|44854|185.219.6.0/24|NL|ripencc|2020-11-24|ERITAP-AS, NL
186.89.173.198|/Cannabiscoin:0.13.1/|70019|8048|186.89.160.0/19|VE|lacnic|2009-11-18|CANTV Servicios, Venezuela, VE
186.93.90.115|/Cannabiscoin:0.13.1/|70019|8048|186.93.64.0/19|VE|lacnic|2009-11-18|CANTV Servicios, Venezuela, VE
190.193.129.199|/Cannabiscoin:0.13.1/|70019|10481|190.193.128.0/19|AR|lacnic|2009-02-02|Telecom Argentina S.A., AR
190.204.181.147|/Cannabiscoin:0.13.1/|70019|8048|190.204.160.0/19|VE|lacnic|2007-06-13|CANTV Servicios, Venezuela, VE
190.205.162.10|/Cannabiscoin:0.13.1/|70019|8048|190.205.160.0/19|VE|lacnic|2007-06-13|CANTV Servicios, Venezuela, VE
190.96.1.19|/Cannabiscoin:0.13.1/|70019|18822|190.96.1.0/24|CL|lacnic|2007-07-19|Manquehuenet, CL
192.222.229.98|/Cannabiscoin:0.13.1/|70019|1403|192.222.224.0/19|CA|arin|2012-12-20|EBOX, CA
194.160.80.214|/Cannabiscoin:0.13.1/|70019|2607|194.160.0.0/16|SK|ripencc|1995-05-03|SANET Slovak Academic Network, SK
195.201.160.242|/Cannabiscoin:0.13.1/|70019|24940|195.201.0.0/16|DE|ripencc|1997-09-22|HETZNER-AS, DE
2.219.244.224|/Satoshi:0.8.6.2/|70012|5607|2.216.0.0/13|GB|ripencc|2010-12-03|BSKYB-BROADBAND-AS, GB
2.223.125.114|/Satoshi:0.8.7/|70014|5607|2.216.0.0/13|GB|ripencc|2010-12-03|BSKYB-BROADBAND-AS, GB
2.60.120.162|/Cannabiscoin:0.13.1/|70019|12389|2.60.0.0/16|RU|ripencc|2010-10-08|ROSTELECOM-AS, RU
209.216.94.139|/Cannabiscoin:0.13.0/|70018|398779|209.216.94.0/24|US|arin|1998-03-27|ACEHOST, US
209.236.86.169|/Cannabiscoin:0.13.1/|70019|32798|209.236.80.0/21|US|arin|2010-02-26|USCONNECT-AS, US
216.227.108.37|/Cannabiscoin:0.13.1/|70019|12175|216.227.104.0/21|US|arin|2004-05-03|YELMNET, US
216.60.185.233|/Cannabiscoin:0.13.1/|70019|7018|216.60.0.0/14|US|arin|1998-08-27|ATT-INTERNET4, US
217.27.145.42|/Cannabiscoin:0.13.1/|70019|28994|217.27.144.0/21|UA|ripencc|2003-05-01|SITEL-AS, UA
221.122.37.71|/Cannabiscoin:0.13.1/|70019|23724|221.122.32.0/20|CN|apnic|2003-07-07|CHINANET-IDC-BJ-AP IDC, China Telecommunications Corporation, CN
27.106.4.154|/Cannabiscoin:0.13.1/|70019|45194|27.106.0.0/21|IN|apnic|2010-06-07|SIPL-AS Syscon Infoway Pvt. Ltd., IN
27.58.116.14|/Cannabiscoin:0.13.1/|70019|24560|27.58.96.0/19|IN|apnic|2010-03-12|AIRTELBROADBAND-AS-AP Bharti Airtel Ltd., Telemedia Services, IN
27.58.82.202|/Cannabiscoin:0.13.1/|70019|24560|27.58.64.0/19|IN|apnic|2010-03-12|AIRTELBROADBAND-AS-AP Bharti Airtel Ltd., Telemedia Services, IN
31.131.191.130|/Cannabiscoin:0.13.1/|70019|56917|31.131.184.0/21|RU|ripencc|2011-06-09|DALTECH-AS, RU
31.25.241.224|/Cannabiscoin:0.13.1/|70019|39741|31.25.241.0/24|RU|ripencc|2011-03-10|DCE-AS, RU
39.106.249.79|/Satoshi:0.8.7.1/|70015|37963|39.106.0.0/15|CN|apnic|2011-04-05|CNNIC-ALIBABA-CN-NET-AP Hangzhou Alibaba Advertising Co.,Ltd., CN
47.156.124.162|/Cannabiscoin:0.13.1/|70019|5650|47.156.0.0/16|US|arin|2015-08-28|FRONTIER-FRTR, US
47.35.165.35|/Cannabiscoin:0.13.1/|70019|20115|47.35.128.0/18|US|arin|2014-12-23|CHARTER-20115, US
49.228.51.189|/Cannabiscoin:0.13.1/|70019|133481|49.228.48.0/22|TH|apnic|2010-11-25|AIS-FIBRE-AS-AP AIS Fibre, TH
5.13.20.22|/Cannabiscoin:0.13.1/|70019|8708|5.12.0.0/14|RO|ripencc|2012-04-27|RCS-RDS 73-75 Dr. Staicovici, RO
5.188.104.245|/Cannabiscoin:0.13.1/|70019|199860|5.188.104.0/23|RU|ripencc|2012-08-09|SDN-AS, RU
51.254.44.206|/Cannabiscoin:0.13.1/|70019|16276|51.254.0.0/15|FR|ripencc|1993-09-01|OVH, FR
51.38.57.53|/Cannabiscoin:0.13.1/|70019|16276|51.38.0.0/16|FR|ripencc|1993-09-01|OVH, FR
51.68.204.201|/Cannabiscoin:0.13.1/|70019|16276|51.68.0.0/16|FR|ripencc|1993-09-01|OVH, FR
52.39.232.122|/Cannabiscoin:0.13.1/|70019|16509|52.36.0.0/14|US|arin|1991-12-19|AMAZON-02, US
58.84.150.45|/Cannabiscoin:0.13.1/|70019|45763|58.84.148.0/22|AU|apnic|2005-04-14|FUZENETPTYLTD-AS-AP Fuzenet Pty Ltd, AU
66.151.242.154|/Cannabiscoin:0.13.1/|70019|63018|66.151.242.0/24|US|arin|2001-07-13|DEDICATED, US
67.164.22.151|/Cannabiscoin:0.13.0/|70018|7922|67.160.0.0/11|US|arin|2002-12-16|COMCAST-7922, US
67.247.20.96|/Cannabiscoin:0.13.1/|70019|12271|67.247.0.0/18|US|arin|2008-02-27|TWC-12271-NYC, US
67.3.23.156|/Cannabiscoin:0.13.1/|70019|209|67.0.0.0/13|US|arin|2001-07-26|CENTURYLINK-US-LEGACY-QWEST, US
68.107.187.128|/Cannabiscoin:0.13.1/|70019|22773|68.107.184.0/21|US|arin|2002-02-04|ASN-CXA-ALL-CCI-22773-RDC, US
68.47.241.193|/Cannabiscoin:0.13.1/|70019|7922|68.32.0.0/11|US|arin|2001-11-29|COMCAST-7922, US
69.243.12.120|/Cannabiscoin:0.13.1/|70019|7922|69.240.0.0/12|US|arin|2004-02-11|COMCAST-7922, US
70.120.101.31|/Cannabiscoin:0.13.1/|70019|11427|70.120.0.0/17|US|arin|2004-09-17|TWC-11427-TEXAS, US
70.94.5.129|/Cannabiscoin:0.13.1/|70019|11427|70.94.0.0/17|US|arin|2004-09-22|TWC-11427-TEXAS, US
71.63.129.184|/Cannabiscoin:0.13.1/|70019|7922|71.56.0.0/13|US|arin|2005-04-29|COMCAST-7922, US
76.231.142.14|/Cannabiscoin:0.13.1/|70019|7018|76.224.0.0/13|US|arin|2006-09-15|ATT-INTERNET4, US
76.31.248.216|/Cannabiscoin:0.13.1/|70019|7922|76.16.0.0/12|US|arin|2006-06-28|COMCAST-7922, US
78.29.32.227|/Cannabiscoin:0.13.1/|70019|8369|78.29.32.0/19|RU|ripencc|2007-09-20|INTERSVYAZ-AS 38-B, Komsomolsky prospekt, RU
80.65.23.139|/Cannabiscoin:0.13.1/|70019|31257|80.65.16.0/21|RU|ripencc|2004-03-18|ORIONNET-NET, RU
81.154.142.242|/Cannabiscoin:0.13.1/|70019|2856|81.128.0.0/11|GB|ripencc|2002-07-25|BT-UK-AS BTnet UK Regional network, GB
83.221.211.116|/Cannabiscoin:0.13.0/|70018|21479|83.221.192.0/19|RU|ripencc|2004-04-15|ROSTOV-TELEGRAF-AS, RU
84.140.36.35|/Cannabiscoin:0.13.1/|70019|3320|84.128.0.0/10|DE|ripencc|2004-03-10|DTAG Internet service provider operations, DE
84.210.72.200|/Cannabiscoin:0.13.1/|70019|41164|84.210.0.0/17|NO|ripencc|2005-07-07|GET-NO GET Norway, NO
85.15.179.171|/Cannabiscoin:0.13.1/|70019|12389|85.15.128.0/18|RU|ripencc|2005-04-26|ROSTELECOM-AS, RU
85.19.25.38|/Cannabiscoin:0.13.1/|70019|25400|85.19.0.0/16|NO|ripencc|2005-03-16|TELIA-NORWAY-AS Telia Norway Core Networks, NO
91.206.16.214|/Cannabiscoin:0.13.1/|70019|13259|91.206.16.0/23|RU|ripencc|2008-06-09|DELTA-TELESYSTEMS-AS, RU
92.12.20.14|/Satoshi:0.8.7/|70014|13285|92.12.0.0/15|GB|ripencc|2007-06-28|OPALTELECOM-AS TalkTalk Communications Limited, GB
92.12.22.157|/Satoshi:0.8.7/|70014|13285|92.12.0.0/15|GB|ripencc|2007-06-28|OPALTELECOM-AS TalkTalk Communications Limited, GB
94.51.21.36|/Cannabiscoin:0.13.1/|70019|12389|94.51.0.0/19|RU|ripencc|2008-05-29|ROSTELECOM-AS, RU
95.111.247.164|/Cannabiscoin:0.13.1/|70019|51167|95.111.246.0/23|DE|ripencc|2008-12-30|CONTABO, DE
95.165.142.160|/Cannabiscoin:0.13.1/|70019|25513|95.165.0.0/16|RU|ripencc|2009-01-27|ASN-MGTS-USPD, RU
95.70.237.58|/Cannabiscoin:0.13.1/|70019|12735|95.70.236.0/22|TR|ripencc|2008-11-26|ASTURKNET, TR
95.79.35.133|/Cannabiscoin:0.13.1/|70019|42682|95.79.0.0/16|RU|ripencc|2008-12-10|ERTH-NNOV-AS, RU
95.90.203.69|/Cannabiscoin:0.13.1/|70019|3209|95.88.0.0/14|DE|ripencc|2008-12-15|VODANET International IP-Backbone of Vodafone, DE
98.254.186.115|/Cannabiscoin:0.13.1/|70019|7922|98.192.0.0/10|US|arin|2007-04-20|COMCAST-7922, US
99.148.47.138|/Cannabiscoin:0.13.1/|70019|7018|99.148.0.0/15|US|arin|2007-08-29|ATT-INTERNET4, US
seed.cannabiscoin.net|/Cannabiscoin:0.13.1/|70019||||||
seed2.cannabiscoin.net|/Cannabiscoin:0.13.1/|70019||||||
