# https://chainz.cryptoid.info/ and whois results
# CannabisCoin
IP Address|Subver|Version|ASN|BGP Prefix|CC|Registry|Allocated|AS Name
1.179.175.78|/Cannabiscoin:0.13.1/|70019|131293|1.179.175.0/24|TH|apnic|2011-04-08|TOT-LLI-AS-AP TOT Public Company Limited, TH
100.12.184.21|/Cannabiscoin:0.13.1/|70019|701|100.12.0.0/16|US|arin|2010-12-28|UUNET, US
109.195.7.242|/Cannabiscoin:0.13.1/|70019|50498|109.195.0.0/20|RU|ripencc|2009-10-27|LIPETSK-AS, RU
109.22.15.31|/Cannabiscoin:0.13.1/|70019|15557|109.0.0.0/11|FR|ripencc|2009-08-13|LDCOMNET, FR
116.105.25.205|/Cannabiscoin:0.13.1/|70019|24086|116.105.24.0/21|VN|apnic|2007-05-18|VIETTEL-AS-VN Viettel Corporation, VN
116.202.251.195|/Cannabiscoin:0.8.9/|70017|24940|116.202.0.0/16|DE|ripencc|2011-01-17|HETZNER-AS, DE
118.71.224.238|/Cannabiscoin:0.13.1/|70019|18403|118.71.224.0/20|VN|apnic|2007-08-08|FPT-AS-AP The Corporation for Financing & Promoting Technology, VN
120.156.75.220|/Cannabiscoin:0.13.1/|70019|1221|120.156.0.0/15|AU|apnic|2008-04-09|ASN-TELSTRA Telstra Corporation Ltd, AU
128.73.157.134|/Cannabiscoin:0.13.1/|70019|8402|128.73.157.0/24|RU|ripencc|2011-11-22|CORBINA-AS OJSC _Vimpelcom_, RU
137.135.18.91|/Cannabiscoin:0.13.1/|70019|8075|137.135.0.0/16|US|arin|2011-06-22|MICROSOFT-CORP-MSN-AS-BLOCK, US
138.68.243.35|/Cannabiscoin:0.13.1/|70019|14061|138.68.240.0/20|US|arin|2016-01-26|DIGITALOCEAN-ASN, US
138.68.254.94|/Cannabiscoin:0.13.0/|70018|14061|138.68.240.0/20|US|arin|2016-01-26|DIGITALOCEAN-ASN, US
144.91.77.184|/Cannabiscoin:0.13.1/|70019|51167|144.91.76.0/23|DE|ripencc|1990-11-20|CONTABO, DE
146.241.208.109|/Cannabiscoin:0.13.1/|70019|35612|146.241.208.0/20|IT|ripencc|1993-03-03|NGI-AS, IT
167.86.116.187|/Cannabiscoin:0.13.1/|70019|51167|167.86.116.0/23|DE|ripencc|1993-05-14|CONTABO, DE
172.72.79.245|/Cannabiscoin:0.13.1/|70019|11426|172.72.0.0/14|US|arin|2015-04-06|TWC-11426-CAROLINAS, US
174.109.193.250|/Cannabiscoin:0.13.1/|70019|11426|174.108.0.0/14|US|arin|2009-02-26|TWC-11426-CAROLINAS, US
175.143.204.194|/Cannabiscoin:0.13.1/|70019|4788|175.143.192.0/19|MY|apnic|2010-01-08|TMNET-AS-AP TM Net, Internet Service Provider, MY
176.93.87.111|/Cannabiscoin:0.13.1/|70019|16086|176.93.0.0/16|FI|ripencc|2011-09-28|DNA, FI
178.63.9.83|/Cannabiscoin:0.13.1/|70019|24940|178.63.0.0/16|DE|ripencc|2010-03-02|HETZNER-AS, DE
178.79.78.142|/Cannabiscoin:0.13.1/|70019|3212|178.79.64.0/18|SI|ripencc|2010-05-07|TELEMACH Broadband Access & Carrier Services, SI
185.177.96.111|/Cannabiscoin:0.13.1/|70019|44604|185.177.96.0/24|RU|ripencc|2016-11-11|SVYAZ-TELECOM-AS, RU
185.177.96.196|/Cannabiscoin:0.13.1/|70019|44604|185.177.96.0/24|RU|ripencc|2016-11-11|SVYAZ-TELECOM-AS, RU
185.219.6.253|/Cannabiscoin:0.13.1/|70019|44854|185.219.6.0/24|NL|ripencc|2020-11-24|ERITAP-AS, NL
190.193.129.199|/Cannabiscoin:0.13.1/|70019|7303|190.193.128.0/19|AR|lacnic|2009-02-02|Telecom Argentina S.A., AR
190.2.138.14|/Cannabiscoin:0.13.1/|70019|49981|190.2.128.0/20|CW|lacnic|2006-04-28|WORLDSTREAM, NL
190.96.1.19|/Cannabiscoin:0.13.1/|70019|18822|190.96.1.0/24|CL|lacnic|2007-07-19|Manquehuenet, CL
192.222.229.98|/Cannabiscoin:0.13.1/|70019|1403|192.222.224.0/19|CA|arin|2012-12-20|EBOX, CA
194.160.80.214|/Cannabiscoin:0.13.1/|70019|2607|194.160.0.0/16|SK|ripencc|1995-05-03|SANET Slovak Academic Network, SK
195.201.176.91|/Satoshi:0.8.7.1/|70015|24940|195.201.0.0/16|DE|ripencc|1997-09-22|HETZNER-AS, DE
195.80.150.234|/Cannabiscoin:0.13.1/|70019|206804|195.80.150.0/24|US|ripencc|2019-06-26|ESTNOC-AS, EE
196.50.100.253|/Cannabiscoin:0.13.1/|70019|37650|196.50.64.0/18|ZA|afrinic|2017-01-20|CM-Value-AS, ZA
2.60.120.162|/Cannabiscoin:0.13.1/|70019|12389|2.60.0.0/16|RU|ripencc|2010-10-08|ROSTELECOM-AS, RU
201.210.34.24|/Cannabiscoin:0.13.1/|70019|8048|201.210.32.0/19|VE|lacnic|2005-08-09|CANTV Servicios, Venezuela, VE
212.116.125.186|/Cannabiscoin:0.13.1/|70019|39710|212.116.124.0/22|RU|ripencc|2008-06-19|BETATELECOM, RU
213.87.147.173|/Cannabiscoin:0.13.1/|70019|8359|213.87.128.0/19|RU|ripencc|2000-04-10|MTS, RU
217.225.107.243|/Cannabiscoin:0.13.1/|70019|3320|217.224.0.0/11|DE|ripencc|2001-04-04|DTAG Internet service provider operations, DE
221.122.37.71|/Cannabiscoin:0.13.1/|70019|23724|221.122.32.0/20|CN|apnic|2003-07-07|CHINANET-IDC-BJ-AP IDC, China Telecommunications Corporation, CN
24.107.211.97|/Cannabiscoin:0.13.1/|70019|20115|24.107.192.0/19|US|arin|2002-04-09|CHARTER-20115, US
31.183.247.192|/Cannabiscoin:0.13.1/|70019|16342|31.182.0.0/15|PL|ripencc|2011-03-24|TOYA TOYA Sp. z o.o., PL
31.25.241.224|/Cannabiscoin:0.13.1/|70019|39741|31.25.241.0/24|RU|ripencc|2011-03-10|DCE-AS, RU
37.135.174.69|/Cannabiscoin:0.13.1/|70019|12479|37.135.174.0/24|ES|ripencc|2012-02-21|UNI2-AS, ES
46.56.247.213|/Cannabiscoin:0.13.1/|70019|42772|46.56.240.0/21|BY|ripencc|2010-10-06|A1-BY-AS, BY
47.155.229.146|/Cannabiscoin:0.13.1/|70019|5650|47.152.0.0/14|US|arin|2015-08-28|FRONTIER-FRTR, US
47.35.165.35|/Cannabiscoin:0.13.1/|70019|20115|47.35.128.0/18|US|arin|2014-12-23|CHARTER-20115, US
49.230.235.207|/Cannabiscoin:0.13.1/|70019|131445|49.230.232.0/22|TH|apnic|2010-11-25|AIS3G-2100-AS-AP Advance Wireless Network, TH
5.188.104.245|/Cannabiscoin:0.13.1/|70019|199860|5.188.104.0/23|RU|ripencc|2012-08-09|SDN-AS, RU
5.59.149.190|/Cannabiscoin:0.13.1/|70019|47626|5.59.128.0/19|CZ|ripencc|2012-06-04|ASTIMER, RU
51.254.44.206|/Cannabiscoin:0.13.1/|70019|16276|51.254.0.0/15|FR|ripencc|1993-09-01|OVH, FR
51.38.57.53|/Cannabiscoin:0.13.1/|70019|16276|51.38.0.0/16|FR|ripencc|1993-09-01|OVH, FR
51.68.204.201|/Cannabiscoin:0.13.1/|70019|16276|51.68.0.0/16|FR|ripencc|1993-09-01|OVH, FR
52.39.232.122|/Cannabiscoin:0.13.1/|70019|16509|52.36.0.0/14|US|arin|1991-12-19|AMAZON-02, US
62.168.160.198|/Cannabiscoin:0.13.1/|70019|16010|62.168.160.0/19|GE|ripencc|2003-02-12|MAGTICOMAS Caucasus-Online, GE
64.150.192.187|/Cannabiscoin:0.13.1/|70019|15146|64.150.192.0/21|BS|arin|2006-09-06|CABLEBAHAMAS, BS
66.151.242.154|/Cannabiscoin:0.13.1/|70019|63018|66.151.242.0/24|US|arin|2001-07-13|DEDICATED, US
67.247.20.96|/Cannabiscoin:0.13.1/|70019|12271|67.247.0.0/18|US|arin|2008-02-27|TWC-12271-NYC, US
67.3.53.135|/Cannabiscoin:0.13.1/|70019|209|67.0.0.0/13|US|arin|2001-07-26|CENTURYLINK-US-LEGACY-QWEST, US
68.45.86.177|/Cannabiscoin:0.13.1/|70019|7922|68.32.0.0/11|US|arin|2001-11-29|COMCAST-7922, US
68.47.241.193|/Cannabiscoin:0.13.1/|70019|7922|68.32.0.0/11|US|arin|2001-11-29|COMCAST-7922, US
69.117.39.74|/Cannabiscoin:0.13.1/|70019|6128|69.116.0.0/14|US|arin|2004-01-15|CABLE-NET-1, US
69.12.110.146|/Cannabiscoin:0.13.1/|70019|40945|69.12.110.0/23|DM|arin|2015-03-09|SATTEL, DM
69.243.12.120|/Cannabiscoin:0.13.1/|70019|7922|69.240.0.0/12|US|arin|2004-02-11|COMCAST-7922, US
70.120.101.31|/Cannabiscoin:0.13.1/|70019|11427|70.120.0.0/17|US|arin|2004-09-17|TWC-11427-TEXAS, US
70.162.112.229|/Cannabiscoin:0.13.0/|70018|22773|70.162.0.0/16|US|arin|2004-07-21|ASN-CXA-ALL-CCI-22773-RDC, US
70.94.5.129|/Cannabiscoin:0.13.1/|70019|11427|70.94.0.0/17|US|arin|2004-09-22|TWC-11427-TEXAS, US
71.132.160.126|/Cannabiscoin:0.13.1/|70019|7018|71.132.128.0/17|US|arin|2005-01-11|ATT-INTERNET4, US
72.206.101.187|/Cannabiscoin:0.13.1/|70019|22773|72.206.96.0/19|US|arin|2005-08-03|ASN-CXA-ALL-CCI-22773-RDC, US
73.154.97.212|/Cannabiscoin:0.13.1/|70019|7922|73.0.0.0/8|US|arin|2005-04-19|COMCAST-7922, US
73.37.163.191|/Cannabiscoin:0.13.1/|70019|7922|73.0.0.0/8|US|arin|2005-04-19|COMCAST-7922, US
75.146.49.210|/Cannabiscoin:0.13.1/|70019|7922|75.144.0.0/13|US|arin|2006-09-25|COMCAST-7922, US
75.82.185.108|/Cannabiscoin:0.13.1/|70019|20001|75.82.0.0/15|US|arin|2006-07-19|TWC-20001-PACWEST, US
78.193.112.104|/Cannabiscoin:0.13.1/|70019|12322|78.192.0.0/11|FR|ripencc|2007-03-15|PROXAD, FR
80.130.56.102|/Cannabiscoin:0.13.1/|70019|3320|80.128.0.0/12|DE|ripencc|2001-08-06|DTAG Internet service provider operations, DE
80.65.23.139|/Cannabiscoin:0.13.1/|70019|31257|80.65.16.0/21|RU|ripencc|2004-03-18|ORIONNET-KRK, RU
81.132.9.69|/Cannabiscoin:0.13.1/|70019|2856|81.128.0.0/12|GB|ripencc|2002-07-25|BT-UK-AS BTnet UK Regional network, GB
83.221.211.116|/Cannabiscoin:0.13.0/|70018|21479|83.221.192.0/19|RU|ripencc|2004-04-15|ROSTOV-TELEGRAF-AS, RU
84.210.72.200|/Cannabiscoin:0.13.1/|70019|41164|84.210.0.0/17|NO|ripencc|2005-07-07|GET-NO GET Norway, NO
85.149.174.98|/Cannabiscoin:0.13.1/|70019|5390|85.149.0.0/16|NL|ripencc|2004-10-06|EURONET, NL
85.15.179.171|/Cannabiscoin:0.13.1/|70019|12389|85.15.128.0/18|RU|ripencc|2005-04-26|ROSTELECOM-AS, RU
85.19.25.38|/Cannabiscoin:0.13.1/|70019|25400|85.19.0.0/16|NO|ripencc|2005-03-16|TELIA-NORWAY-AS Telia Norway Core Networks, NO
85.221.140.206|/Cannabiscoin:0.13.1/|70019|13110|85.221.128.0/17|PL|ripencc|2005-02-08|INEA-AS, PL
85.29.87.172|/Cannabiscoin:0.13.1/|70019|13170|85.29.64.0/18|FI|ripencc|2005-05-12|KPO-AS, FI
86.146.248.123|/Cannabiscoin:0.13.1/|70019|2856|86.128.0.0/11|GB|ripencc|2005-02-07|BT-UK-AS BTnet UK Regional network, GB
89.133.215.246|/Cannabiscoin:0.13.1/|70019|6830|89.132.0.0/14|HU|ripencc|2006-01-17|LIBERTYGLOBAL Liberty Global (formerly UPC Broadband Holding, aka AORTA), NL
90.112.37.229|/Satoshi:0.8.7/|70014|3215|90.112.0.0/16|FR|ripencc|2006-03-02|France Telecom - Orange, FR
91.206.16.214|/Cannabiscoin:0.13.1/|70019|13259|91.206.16.0/23|RU|ripencc|2008-06-09|DELTA-TELESYSTEMS-AS, RU
93.240.2.251|/Cannabiscoin:0.13.1/|70019|3320|93.192.0.0/10|DE|ripencc|2008-02-12|DTAG Internet service provider operations, DE
93.241.68.11|/Cannabiscoin:0.13.1/|70019|3320|93.192.0.0/10|DE|ripencc|2008-02-12|DTAG Internet service provider operations, DE
95.111.247.164|/Cannabiscoin:0.13.1/|70019|51167|95.111.246.0/23|DE|ripencc|2008-12-30|CONTABO, DE
95.29.156.199|/Cannabiscoin:0.13.1/|70019|8402|95.29.128.0/19|RU|ripencc|2008-10-10|CORBINA-AS OJSC _Vimpelcom_, RU
95.90.203.69|/Cannabiscoin:0.13.1/|70019|3209|95.88.0.0/14|DE|ripencc|2008-12-15|VODANET International IP-Backbone of Vodafone, DE
96.75.181.26|/Cannabiscoin:0.13.1/|70019|7922|96.64.0.0/11|US|arin|2008-02-21|COMCAST-7922, US
98.240.183.240|/Cannabiscoin:0.13.1/|70019|7922|98.192.0.0/10|US|arin|2007-04-20|COMCAST-7922, US
98.242.56.44|/Cannabiscoin:0.13.1/|70019|7922|98.192.0.0/10|US|arin|2007-04-20|COMCAST-7922, US
99.148.47.138|/Cannabiscoin:0.13.1/|70019|7018|99.148.0.0/15|US|arin|2007-08-29|ATT-INTERNET4, US
99.162.185.169|/Cannabiscoin:0.13.1/|70019|7018|99.160.0.0/13|US|arin|2007-08-29|ATT-INTERNET4, US
99.234.178.217|/Cannabiscoin:0.13.1/|70019|812|99.234.0.0/16|CA|arin|2007-03-12|ROGERS-COMMUNICATIONS, CA
seed.cannabiscoin.net|/Cannabiscoin:0.13.1/|70019||||||
seed2.cannabiscoin.net|/Satoshi:0.8.7.1/|70015||||||
