# https://chainz.cryptoid.info/ and whois results
# CannabisCoin
IP Address|Subver|Version|ASN|BGP Prefix|CC|Registry|Allocated|AS Name
1.46.175.135|/Cannabiscoin:0.13.1/|70019|24378|1.46.168.0/21|TH|apnic|2010-05-26|ENGTAC-AS-TH-AP Total Access Communication PLC., TH
1.47.100.3|/Cannabiscoin:0.13.1/|70019|24378|1.47.96.0/21|TH|apnic|2010-05-26|ENGTAC-AS-TH-AP Total Access Communication PLC., TH
103.96.141.121|/Cannabiscoin:0.13.1/|70019|136805|103.96.141.0/24|AU|apnic|2017-07-07|NGVPL-AS-AP Next Generation Voice PTY LTD, AU
108.50.170.187|/Cannabiscoin:0.13.1/|70019|701|108.50.128.0/17|US|arin|2009-06-05|UUNET, US
116.202.251.195|/Cannabiscoin:0.8.9/|70017|24940|116.202.0.0/16|DE|ripencc|2011-01-17|HETZNER-AS, DE
129.107.121.105|/Cannabiscoin:0.13.1/|70019|18515|129.107.0.0/16|US|arin|1987-11-06|UTARLINGTON, US
134.17.155.20|/Cannabiscoin:0.13.1/|70019|25106|134.17.144.0/20|BY|ripencc|2011-11-03|MTSBY-AS, BY
136.32.141.74|/Cannabiscoin:0.13.1/|70019|16591|136.32.128.0/20|US|arin|2015-10-06|GOOGLE-FIBER, US
137.135.18.91|/Cannabiscoin:0.13.1/|70019|8075|137.135.0.0/16|US|arin|2011-06-22|MICROSOFT-CORP-MSN-AS-BLOCK, US
138.68.243.35|/Cannabiscoin:0.13.1/|70019|14061|138.68.240.0/20|US|arin|2016-01-26|DIGITALOCEAN-ASN, US
138.94.37.7|/Cannabiscoin:0.13.1/|70019|264107|138.94.37.0/24|BR|lacnic|2015-03-05|ABC TELECOM - COMUNICACAO EIRELI, BR
142.112.212.238|/Cannabiscoin:0.13.1/|70019|577|142.112.0.0/16|CA|arin|1993-04-05|BACOM, CA
144.91.77.184|/Cannabiscoin:0.13.1/|70019|51167|144.91.76.0/23|DE|ripencc|1990-11-20|CONTABO, DE
149.200.117.61|/Cannabiscoin:0.13.1/|70019|5483|149.200.0.0/17|HU|ripencc|2011-08-04|MAGYAR-TELEKOM-MAIN-AS Magyar Telekom Nyrt., HU
155.138.151.42|/Cannabiscoin:0.13.1/|70019|20473|155.138.128.0/19|US|arin|2018-12-05|AS-CHOOPA, US
167.86.116.187|/Cannabiscoin:0.13.1/|70019|51167|167.86.116.0/23|DE|ripencc|1993-05-14|CONTABO, DE
173.245.203.128|/Cannabiscoin:0.13.1/|70019|12989|173.245.203.0/24|US|arin|2010-05-21|HWNG, NL
176.27.172.42|/Satoshi:0.8.7/|70014|5607|176.24.0.0/14|GB|ripencc|2011-05-19|BSKYB-BROADBAND-AS, GB
178.63.9.83|/Cannabiscoin:0.13.1/|70019|24940|178.63.0.0/16|DE|ripencc|2010-03-02|HETZNER-AS, DE
178.79.84.197|/Cannabiscoin:0.13.1/|70019|3212|178.79.64.0/18|SI|ripencc|2010-05-07|TELEMACH Broadband Access & Carrier Services, SI
184.22.215.65|/Cannabiscoin:0.13.1/|70019|133481|184.22.212.0/22|TH|apnic|2001-11-01|AIS-FIBRE-AS-AP AIS Fibre, TH
185.181.8.101|/Cannabiscoin:0.13.1/|70019|60781|185.181.8.0/24|NL|ripencc|2016-12-07|LEASEWEB-NL-AMS-01 Netherlands, NL
186.13.189.25|/Cannabiscoin:0.13.1/|70019|11664|186.13.184.0/21|AR|lacnic|2009-03-18|Techtel LMDS Comunicaciones Interactivas S.A., AR
188.191.84.121|/Cannabiscoin:0.13.1/|70019|49350|188.191.80.0/20|RU|ripencc|2011-02-28|TINET-AS, RU
188.254.215.199|/Cannabiscoin:0.13.0/|70018|43205|188.254.128.0/17|BG|ripencc|2011-02-18|BULSATCOM-BG-AS Sofia, BG
190.239.229.239|/Cannabiscoin:0.13.1/|70019|6147|190.239.192.0/18|PE|lacnic|2011-01-18|Telefonica del Peru S.A.A., PE
190.96.1.19|/Cannabiscoin:0.13.1/|70019|18822|190.96.1.0/24|CL|lacnic|2007-07-19|Manquehuenet, CL
192.249.99.131|/Cannabiscoin:0.13.1/|70019|5690|192.249.96.0/20|CA|arin|2013-07-30|VIANET-NO, CA
194.160.80.214|/Cannabiscoin:0.13.1/|70019|2607|194.160.0.0/16|SK|ripencc|1995-05-03|SANET Slovak Academic Network, SK
213.161.14.118|/Cannabiscoin:0.13.1/|70019|3212|213.161.0.0/19|SI|ripencc|1999-12-23|TELEMACH Broadband Access & Carrier Services, SI
216.60.185.233|/Cannabiscoin:0.13.1/|70019|7018|216.60.0.0/14|US|arin|1998-08-27|ATT-INTERNET4, US
221.122.37.71|/Cannabiscoin:0.13.1/|70019|23724|221.122.32.0/20|CN|apnic|2003-07-07|CHINANET-IDC-BJ-AP IDC, China Telecommunications Corporation, CN
24.116.47.125|/Cannabiscoin:0.13.1/|70019|11492|24.116.47.0/24|US|arin|1996-09-25|CABLEONE, US
24.189.39.75|/Cannabiscoin:0.13.1/|70019|6128|24.188.0.0/14|US|arin|1999-07-29|CABLE-NET-1, US
24.7.88.54|/Cannabiscoin:0.13.1/|70019|7922|24.0.0.0/12|US|arin|2003-10-06|COMCAST-7922, US
24.93.104.14|/Cannabiscoin:0.13.1/|70019|10796|24.93.96.0/19|US|arin|1997-05-02|TWC-10796-MIDWEST, US
31.25.241.224|/Cannabiscoin:0.13.1/|70019|39741|31.25.241.0/24|RU|ripencc|2011-03-10|DCE-AS, RU
37.247.94.207|/Cannabiscoin:0.13.1/|70019|21413|37.247.64.0/19|DE|ripencc|2012-04-18|ENVIA-TEL-AS D-09114 Chemnitz, DE
39.106.249.79|/Satoshi:0.8.7.1/|70015|37963|39.106.0.0/15|CN|apnic|2011-04-05|CNNIC-ALIBABA-CN-NET-AP Hangzhou Alibaba Advertising Co.,Ltd., CN
45.131.192.95|/Cannabiscoin:0.13.0/|70018|29802|45.131.192.0/24|NL|ripencc|2019-07-22|HVC-AS, US
47.155.229.117|/Cannabiscoin:0.13.1/|70019|5650|47.152.0.0/14|US|arin|2015-08-28|FRONTIER-FRTR, US
47.157.217.183|/Cannabiscoin:0.13.1/|70019|5650|47.157.0.0/16|US|arin|2015-08-28|FRONTIER-FRTR, US
47.35.165.35|/Cannabiscoin:0.13.1/|70019|20115|47.35.128.0/18|US|arin|2014-12-23|CHARTER-20115, US
5.188.104.245|/Cannabiscoin:0.13.1/|70019|199860|5.188.104.0/23|RU|ripencc|2012-08-09|SDN-AS, RU
51.174.185.253|/Cannabiscoin:0.13.1/|70019|29695|51.174.0.0/15|NO|ripencc|1993-09-01|ALTIBOX_AS Norway, NO
51.254.44.206|/Cannabiscoin:0.13.1/|70019|16276|51.254.0.0/15|FR|ripencc|1993-09-01|OVH, FR
51.38.57.53|/Cannabiscoin:0.13.1/|70019|16276|51.38.0.0/16|FR|ripencc|1993-09-01|OVH, FR
52.144.99.74|/Cannabiscoin:0.13.1/|70019|26077|52.144.99.0/24|US|arin|2016-09-07|NEXTLINK-TEXAS, US
52.39.232.122|/Cannabiscoin:0.13.1/|70019|16509|52.36.0.0/14|US|arin|2015-09-02|AMAZON-02, US
58.96.84.1|/Cannabiscoin:0.13.1/|70019|10143|58.96.64.0/19|AU|apnic|2005-04-11|EXETEL-AS-AP Exetel Pty Ltd, AU
66.151.242.154|/Cannabiscoin:0.13.1/|70019|63018|66.151.242.0/24|US|arin|2001-07-13|DEDICATED, US
67.164.22.151|/Cannabiscoin:0.13.0/|70018|7922|67.160.0.0/11|US|arin|2002-12-16|COMCAST-7922, US
68.107.186.101|/Cannabiscoin:0.13.1/|70019|22773|68.107.184.0/21|US|arin|2002-02-04|ASN-CXA-ALL-CCI-22773-RDC, US
68.172.60.250|/Cannabiscoin:0.13.1/|70019|11351|68.172.0.0/17|US|arin|2002-11-25|TWC-11351-NORTHEAST, US
69.250.88.184|/Cannabiscoin:0.13.1/|70019|7922|69.240.0.0/12|US|arin|2004-02-11|COMCAST-7922, US
70.120.101.31|/Cannabiscoin:0.13.1/|70019|11427|70.120.0.0/17|US|arin|2004-09-17|TWC-11427-TEXAS, US
70.123.252.204|/Cannabiscoin:0.13.1/|70019|11427|70.122.0.0/15|US|arin|2004-09-17|TWC-11427-TEXAS, US
72.191.35.176|/Cannabiscoin:0.13.1/|70019|11427|72.190.0.0/15|US|arin|2005-11-21|TWC-11427-TEXAS, US
77.180.159.215|/Cannabiscoin:0.13.1/|70019|6805|77.176.0.0/12|DE|ripencc|2006-11-17|TDDE-ASN1, DE
78.29.32.227|/Cannabiscoin:0.13.1/|70019|8369|78.29.32.0/19|RU|ripencc|2007-09-20|INTERSVYAZ-AS 38-B, Komsomolsky prospekt, RU
78.37.16.156|/Cannabiscoin:0.13.1/|70019|12389|78.37.16.0/22|RU|ripencc|2007-03-16|ROSTELECOM-AS, RU
78.37.17.138|/Cannabiscoin:0.13.1/|70019|12389|78.37.16.0/22|RU|ripencc|2007-03-16|ROSTELECOM-AS, RU
78.37.18.8|/Cannabiscoin:0.13.1/|70019|12389|78.37.16.0/22|RU|ripencc|2007-03-16|ROSTELECOM-AS, RU
79.252.125.11|/Cannabiscoin:0.13.1/|70019|3320|79.192.0.0/10|DE|ripencc|2007-06-06|DTAG Internet service provider operations, DE
80.192.231.205|/Cannabiscoin:0.13.1/|70019|5089|80.192.0.0/15|GB|ripencc|2001-09-26|NTL, GB
80.65.23.139|/Cannabiscoin:0.13.1/|70019|31257|80.65.16.0/21|RU|ripencc|2004-03-18|ORIONNET-NET, RU
81.14.52.56|/Cannabiscoin:0.13.1/|70019|42811|81.14.0.0/17|FR|ripencc|2010-04-20|HERAULT-TELECOM-AS, FR
81.182.135.169|/Cannabiscoin:0.13.1/|70019|5483|81.182.0.0/15|HU|ripencc|2003-02-05|MAGYAR-TELEKOM-MAIN-AS Magyar Telekom Nyrt., HU
83.221.211.116|/Cannabiscoin:0.13.0/|70018|21479|83.221.192.0/19|RU|ripencc|2004-04-15|ROSTOV-TELEGRAF-AS, RU
85.15.179.171|/Cannabiscoin:0.13.1/|70019|12389|85.15.128.0/18|RU|ripencc|2005-04-26|ROSTELECOM-AS, RU
85.19.25.38|/Cannabiscoin:0.13.1/|70019|3292|85.19.0.0/16|NO|ripencc|2005-03-16|TDC TDC A/S, DK
85.29.228.48|/Cannabiscoin:0.13.1/|70019|3249|85.29.192.0/18|EE|ripencc|2005-05-20|ESTPAK, EE
85.29.87.172|/Cannabiscoin:0.13.1/|70019|13170|85.29.64.0/18|FI|ripencc|2005-05-12|KPO-AS, FI
90.240.229.121|/Cannabiscoin:0.13.1/|70019|5378|90.240.0.0/14|GB|ripencc|2006-09-08|Vodafone, GB
93.36.222.44|/Cannabiscoin:0.13.1/|70019|12874|93.36.0.0/15|IT|ripencc|2008-02-25|FASTWEB, IT
95.103.248.216|/Cannabiscoin:0.13.1/|70019|6855|95.102.0.0/15|SK|ripencc|2009-02-09|SK-TELEKOM, SK
95.111.247.164|/Cannabiscoin:0.13.1/|70019|51167|95.111.246.0/23|DE|ripencc|2008-12-30|CONTABO, DE
95.216.46.126|/Cannabiscoin:0.13.1/|70019|24940|95.216.0.0/16|DE|ripencc|2009-02-24|HETZNER-AS, DE
95.79.35.133|/Cannabiscoin:0.13.1/|70019|42682|95.79.0.0/16|RU|ripencc|2008-12-10|ERTH-NNOV-AS, RU
seed.cannabiscoin.net|/Cannabiscoin:0.13.1/|70019||||||
seed2.cannabiscoin.net|/Cannabiscoin:0.13.1/|70019||||||
