# https://chainz.cryptoid.info/ and whois results
# CannabisCoin
IP Address|Subver|Version|ASN|BGP Prefix|CC|Registry|Allocated|AS Name
109.22.15.31|/Cannabiscoin:0.13.1/|70019|15557|109.0.0.0/11|FR|ripencc|2009-08-13|LDCOMNET, FR
116.202.251.195|/Cannabiscoin:0.8.9/|70017|24940|116.202.0.0/16|DE|ripencc|2011-01-17|HETZNER-AS, DE
118.71.224.238|/Cannabiscoin:0.13.1/|70019|18403|118.71.224.0/20|VN|apnic|2007-08-08|FPT-AS-AP The Corporation for Financing & Promoting Technology, VN
136.32.141.74|/Cannabiscoin:0.13.1/|70019|16591|136.32.128.0/20|US|arin|2015-10-06|GOOGLE-FIBER, US
137.135.18.91|/Cannabiscoin:0.13.1/|70019|8075|137.135.0.0/16|US|arin|2011-06-22|MICROSOFT-CORP-MSN-AS-BLOCK, US
138.68.243.35|/Cannabiscoin:0.13.1/|70019|14061|138.68.240.0/20|US|arin|2016-01-26|DIGITALOCEAN-ASN, US
138.68.254.94|/Cannabiscoin:0.13.0/|70018|14061|138.68.240.0/20|US|arin|2016-01-26|DIGITALOCEAN-ASN, US
144.91.77.184|/Cannabiscoin:0.13.1/|70019|51167|144.91.76.0/23|DE|ripencc|1990-11-20|CONTABO, DE
155.138.151.42|/Cannabiscoin:0.13.1/|70019|20473|155.138.128.0/19|US|arin|2018-12-05|AS-CHOOPA, US
167.86.116.187|/Cannabiscoin:0.13.1/|70019|51167|167.86.116.0/23|DE|ripencc|1993-05-14|CONTABO, DE
171.252.188.158|/Satoshi:0.8.7/|70014|7552|171.252.188.0/23|VN|apnic|2011-03-04|VIETEL-AS-AP Viettel Group, VN
172.112.153.22|/Cannabiscoin:0.13.1/|70019|20001|172.112.0.0/13|US|arin|2015-06-19|TWC-20001-PACWEST, US
172.58.62.225|/Satoshi:0.8.7/|70014|21928|172.58.56.0/21|US|arin|2012-09-18|T-MOBILE-AS21928, US
176.27.155.70|/Satoshi:0.8.7/|70014|5607|176.24.0.0/14|GB|ripencc|2011-05-19|BSKYB-BROADBAND-AS, GB
176.8.244.112|/Cannabiscoin:0.13.1/|70019|15895|176.8.0.0/16|UA|ripencc|2011-05-13|KSNET-AS, UA
178.63.9.83|/Cannabiscoin:0.13.1/|70019|24940|178.63.0.0/16|DE|ripencc|2010-03-02|HETZNER-AS, DE
178.79.78.142|/Cannabiscoin:0.13.1/|70019|3212|178.79.64.0/18|SI|ripencc|2010-05-07|TELEMACH Broadband Access & Carrier Services, SI
184.147.146.41|/Cannabiscoin:0.13.1/|70019|577|184.147.0.0/16|CA|arin|2010-04-12|BACOM, CA
184.147.147.2|/Cannabiscoin:0.13.1/|70019|577|184.147.0.0/16|CA|arin|2010-04-12|BACOM, CA
184.147.147.9|/Cannabiscoin:0.13.1/|70019|577|184.147.0.0/16|CA|arin|2010-04-12|BACOM, CA
184.2.150.152|/Cannabiscoin:0.13.1/|70019|209|184.0.0.0/13|US|arin|2009-06-23|CENTURYLINK-US-LEGACY-QWEST, US
190.205.191.253|/Cannabiscoin:0.13.1/|70019|8048|190.205.160.0/19|VE|lacnic|2007-06-13|CANTV Servicios, Venezuela, VE
190.239.229.58|/Cannabiscoin:0.13.1/|70019|6147|190.239.192.0/18|PE|lacnic|2011-01-18|Telefonica del Peru S.A.A., PE
190.96.1.19|/Cannabiscoin:0.13.1/|70019|18822|190.96.1.0/24|CL|lacnic|2007-07-19|Manquehuenet, CL
192.222.229.98|/Cannabiscoin:0.13.1/|70019|1403|192.222.224.0/19|CA|arin|2012-12-20|EBOX, CA
217.103.5.223|/Cannabiscoin:0.13.1/|70019|6830|217.103.0.0/17|NL|ripencc|2000-12-05|LIBERTYGLOBAL Liberty Global (formerly UPC Broadband Holding, aka AORTA), AT
217.122.66.84|/Cannabiscoin:0.13.1/|70019|33915|217.122.0.0/15|NL|ripencc|2000-12-19|TNF-AS, NL
221.122.37.71|/Cannabiscoin:0.13.1/|70019|23724|221.122.32.0/20|CN|apnic|2003-07-07|CHINANET-IDC-BJ-AP IDC, China Telecommunications Corporation, CN
27.106.4.155|/Cannabiscoin:0.13.1/|70019|45194|27.106.0.0/21|IN|apnic|2010-06-07|SIPL-AS Syscon Infoway Pvt. Ltd., IN
31.25.241.224|/Cannabiscoin:0.13.1/|70019|39741|31.25.241.0/24|RU|ripencc|2011-03-10|DCE-AS, RU
37.247.94.207|/Cannabiscoin:0.13.1/|70019|21413|37.247.64.0/19|DE|ripencc|2012-04-18|ENVIA-TEL-AS D-09114 Chemnitz, DE
39.106.249.79|/Satoshi:0.8.7.1/|70015|37963|39.106.0.0/15|CN|apnic|2011-04-05|CNNIC-ALIBABA-CN-NET-AP Hangzhou Alibaba Advertising Co.,Ltd., CN
47.35.165.35|/Cannabiscoin:0.13.1/|70019|20115|47.35.128.0/18|US|arin|2014-12-23|CHARTER-20115, US
5.103.213.81|/Cannabiscoin:0.13.1/|70019|44869|5.103.0.0/16|DK|ripencc|2012-06-27|FIBIA-P-S, DK
5.188.104.245|/Cannabiscoin:0.13.1/|70019|199860|5.188.104.0/23|RU|ripencc|2012-08-09|SDN-AS, RU
5.240.124.109|???|0|1257|5.240.0.0/14|SE|ripencc|2012-09-10|TELE2, EU
51.254.44.206|/Cannabiscoin:0.13.1/|70019|16276|51.254.0.0/15|FR|ripencc|1993-09-01|OVH, FR
51.38.57.53|/Cannabiscoin:0.13.1/|70019|16276|51.38.0.0/16|FR|ripencc|1993-09-01|OVH, FR
52.39.232.122|/Cannabiscoin:0.13.1/|70019|16509|52.36.0.0/14|US|arin|2015-09-02|AMAZON-02, US
66.151.242.154|/Cannabiscoin:0.13.1/|70019|63018|66.151.242.0/24|US|arin|2001-07-13|DEDICATED, US
67.247.20.96|/Cannabiscoin:0.13.1/|70019|12271|67.247.0.0/18|US|arin|2008-02-27|TWC-12271-NYC, US
67.3.59.10|/Cannabiscoin:0.13.1/|70019|209|67.0.0.0/13|US|arin|2001-07-26|CENTURYLINK-US-LEGACY-QWEST, US
68.205.204.77|/Cannabiscoin:0.13.1/|70019|33363|68.204.0.0/15|US|arin|2003-01-31|BHN-33363, US
68.47.241.193|/Cannabiscoin:0.13.1/|70019|7922|68.32.0.0/11|US|arin|2001-11-29|COMCAST-7922, US
69.117.96.23|/Cannabiscoin:0.13.1/|70019|6128|69.116.0.0/14|US|arin|2004-01-15|CABLE-NET-1, US
69.250.88.184|/Cannabiscoin:0.13.1/|70019|7922|69.240.0.0/12|US|arin|2004-02-11|COMCAST-7922, US
70.120.101.31|/Cannabiscoin:0.13.1/|70019|11427|70.120.0.0/17|US|arin|2004-09-17|TWC-11427-TEXAS, US
70.162.112.229|/Cannabiscoin:0.13.0/|70018|22773|70.162.0.0/16|US|arin|2004-07-21|ASN-CXA-ALL-CCI-22773-RDC, US
70.29.78.50|/Cannabiscoin:0.13.1/|70019|577|70.29.0.0/16|CA|arin|2008-01-28|BACOM, CA
71.218.102.114|/Cannabiscoin:0.13.1/|70019|209|71.218.0.0/16|US|arin|2005-05-06|CENTURYLINK-US-LEGACY-QWEST, US
71.94.159.239|/Cannabiscoin:0.13.1/|70019|20115|71.94.128.0/19|US|arin|2005-05-19|CHARTER-20115, US
77.185.187.137|/Cannabiscoin:0.13.1/|70019|6805|77.176.0.0/12|DE|ripencc|2006-11-17|TDDE-ASN1, DE
77.189.27.230|/Cannabiscoin:0.13.1/|70019|6805|77.176.0.0/12|DE|ripencc|2006-11-17|TDDE-ASN1, DE
78.27.116.203|/Cannabiscoin:0.13.1/|70019|16086|78.27.64.0/18|FI|ripencc|2007-09-07|DNA, FI
78.29.32.227|/Cannabiscoin:0.13.1/|70019|8369|78.29.32.0/19|RU|ripencc|2007-09-20|INTERSVYAZ-AS 38-B, Komsomolsky prospekt, RU
80.65.23.139|/Cannabiscoin:0.13.1/|70019|31257|80.65.16.0/21|RU|ripencc|2004-03-18|ORIONNET-NET, RU
83.221.211.116|/Cannabiscoin:0.13.0/|70018|21479|83.221.192.0/19|RU|ripencc|2004-04-15|ROSTOV-TELEGRAF-AS, RU
84.165.158.91|/Cannabiscoin:0.13.0/|70018|3320|84.128.0.0/10|DE|ripencc|2004-03-10|DTAG Internet service provider operations, DE
85.15.179.171|/Cannabiscoin:0.13.1/|70019|12389|85.15.128.0/18|RU|ripencc|2005-04-26|ROSTELECOM-AS, RU
85.19.25.38|/Cannabiscoin:0.13.1/|70019|25400|85.19.0.0/16|NO|ripencc|2005-03-16|TELIA-NORWAY-AS Telia Norway Core Networks, NO
85.221.140.206|/Cannabiscoin:0.13.1/|70019|13110|85.221.128.0/17|PL|ripencc|2005-02-08|INEA-AS, PL
90.187.250.25|/Cannabiscoin:0.13.1/|70019|3209|90.187.0.0/16|DE|ripencc|2006-11-09|VODANET International IP-Backbone of Vodafone, DE
91.206.16.214|/Cannabiscoin:0.13.1/|70019|13259|91.206.16.0/23|RU|ripencc|2008-06-09|DELTA-TELESYSTEMS-AS, RU
95.111.247.164|/Cannabiscoin:0.13.1/|70019|51167|95.111.246.0/23|DE|ripencc|2008-12-30|CONTABO, DE
95.156.83.50|/Cannabiscoin:0.13.1/|70019|12389|95.156.64.0/18|RU|ripencc|2009-03-18|ROSTELECOM-AS, RU
95.90.203.39|/Cannabiscoin:0.13.1/|70019|3209|95.88.0.0/14|DE|ripencc|2008-12-15|VODANET International IP-Backbone of Vodafone, DE
seed.cannabiscoin.net|/Cannabiscoin:0.13.1/|70019||||||
seed2.cannabiscoin.net|/Cannabiscoin:0.13.1/|70019||||||
