# https://chainz.cryptoid.info/ and whois results
# CannabisCoin
IP Address|Subver|Version|ASN|BGP Prefix|CC|Registry|Allocated|AS Name
107.204.96.200|/Cannabiscoin:0.13.1/|70019|7018|107.192.0.0/12|US|arin|2012-04-25|ATT-INTERNET4, US
109.22.15.31|/Cannabiscoin:0.13.1/|70019|15557|109.0.0.0/11|FR|ripencc|2009-08-13|LDCOMNET, FR
116.105.175.60|/Cannabiscoin:0.13.1/|70019|24086|116.105.168.0/21|VN|apnic|2007-05-18|VIETTEL-AS-VN Viettel Corporation, VN
116.202.251.195|/Cannabiscoin:0.8.9/|70017|24940|116.202.0.0/16|DE|ripencc|2011-01-17|HETZNER-AS, DE
118.71.224.238|/Cannabiscoin:0.13.1/|70019|18403|118.71.224.0/20|VN|apnic|2007-08-08|FPT-AS-AP The Corporation for Financing & Promoting Technology, VN
136.24.44.100|/Cannabiscoin:0.13.1/|70019|19165|136.24.0.0/16|US|arin|2016-10-31|WEBPASS, US
137.135.18.91|/Cannabiscoin:0.13.1/|70019|8075|137.135.0.0/16|US|arin|2011-06-22|MICROSOFT-CORP-MSN-AS-BLOCK, US
138.68.254.94|/Cannabiscoin:0.13.0/|70018|14061|138.68.240.0/20|US|arin|2016-01-26|DIGITALOCEAN-ASN, US
144.91.77.184|/Cannabiscoin:0.13.1/|70019|51167|144.91.76.0/23|DE|ripencc|1990-11-20|CONTABO, DE
155.138.151.42|/Cannabiscoin:0.13.1/|70019|20473|155.138.128.0/19|US|arin|2018-12-05|AS-CHOOPA, US
156.146.129.67|/Cannabiscoin:0.13.1/|70019|1448|156.146.128.0/18|US|arin|2020-04-08|UNITED-BROADBAND, US
167.86.116.187|/Cannabiscoin:0.13.1/|70019|51167|167.86.116.0/23|DE|ripencc|1993-05-14|CONTABO, DE
172.112.153.22|/Cannabiscoin:0.13.1/|70019|20001|172.112.0.0/13|US|arin|2015-06-19|TWC-20001-PACWEST, US
173.63.177.136|/Cannabiscoin:0.13.1/|70019|701|173.63.0.0/16|US|arin|2008-10-09|UUNET, US
176.27.155.70|/Satoshi:0.8.7/|70014|5607|176.24.0.0/14|GB|ripencc|2011-05-19|BSKYB-BROADBAND-AS, GB
176.31.255.61|/Cannabiscoin:0.13.1/|70019|16276|176.31.0.0/16|FR|ripencc|2011-05-20|OVH, FR
178.155.6.193|/Cannabiscoin:0.13.1/|70019|29497|178.155.6.0/24|RU|ripencc|2010-05-19|KUBANGSM, RU
178.63.9.83|/Cannabiscoin:0.13.1/|70019|24940|178.63.0.0/16|DE|ripencc|2010-03-02|HETZNER-AS, DE
178.79.78.142|/Cannabiscoin:0.13.1/|70019|3212|178.79.64.0/18|SI|ripencc|2010-05-07|TELEMACH Broadband Access & Carrier Services, SI
184.147.176.129|/Cannabiscoin:0.13.1/|70019|577|184.147.0.0/16|CA|arin|2010-04-12|BACOM, CA
184.2.150.152|/Cannabiscoin:0.13.1/|70019|209|184.0.0.0/13|US|arin|2009-06-23|CENTURYLINK-US-LEGACY-QWEST, US
184.6.15.227|/Cannabiscoin:0.13.1/|70019|209|184.6.0.0/19|US|arin|2009-06-23|CENTURYLINK-US-LEGACY-QWEST, US
186.93.81.143|/Cannabiscoin:0.13.1/|70019|8048|186.93.64.0/19|VE|lacnic|2009-11-18|CANTV Servicios, Venezuela, VE
188.244.153.137|/Cannabiscoin:0.13.1/|70019|15774|188.244.152.0/23|RU|ripencc|2011-01-11|TTK-RTL Retail, RU
190.193.129.199|/Cannabiscoin:0.13.1/|70019|10481|190.193.128.0/19|AR|lacnic|2009-02-02|Telecom Argentina S.A., AR
190.205.1.12|/Cannabiscoin:0.13.1/|70019|8048|190.205.0.0/19|VE|lacnic|2007-06-13|CANTV Servicios, Venezuela, VE
190.239.229.65|/Cannabiscoin:0.13.1/|70019|6147|190.239.192.0/18|PE|lacnic|2011-01-18|Telefonica del Peru S.A.A., PE
190.96.1.19|/Cannabiscoin:0.13.1/|70019|18822|190.96.1.0/24|CL|lacnic|2007-07-19|Manquehuenet, CL
191.254.84.211|/Cannabiscoin:0.13.1/|70019|27699|191.254.0.0/16|BR|lacnic|2013-12-27|TELEFONICA BRASIL S.A, BR
191.255.190.159|/Cannabiscoin:0.13.1/|70019|27699|191.254.0.0/15|BR|lacnic|2013-12-27|TELEFONICA BRASIL S.A, BR
192.222.229.98|/Cannabiscoin:0.13.1/|70019|1403|192.222.224.0/19|CA|arin|2012-12-20|EBOX, CA
194.160.80.214|/Cannabiscoin:0.13.1/|70019|2607|194.160.0.0/16|SK|ripencc|1995-05-03|SANET Slovak Academic Network, SK
2.58.44.106|/Satoshi:0.8.7/|70014|9009|2.58.44.0/24|RO|ripencc|2019-03-21|M247, GB
201.13.0.181|/Cannabiscoin:0.13.1/|70019|27699|201.13.0.0/17|BR|lacnic|2004-06-08|TELEFONICA BRASIL S.A, BR
203.189.130.130|/Cannabiscoin:0.13.1/|70019|23673|203.189.130.0/24|KH|apnic|2001-08-14|ONLINE-AS Cogetel Online, Cambodia, ISP, KH
213.127.2.47|/Cannabiscoin:0.13.1/|70019|6830|213.127.0.0/17|NL|ripencc|1999-09-16|LIBERTYGLOBAL Liberty Global (formerly UPC Broadband Holding, aka AORTA), NL
216.60.185.233|/Cannabiscoin:0.13.1/|70019|7018|216.60.0.0/14|US|arin|1998-08-27|ATT-INTERNET4, US
221.122.37.71|/Cannabiscoin:0.13.1/|70019|23724|221.122.32.0/20|CN|apnic|2003-07-07|CHINANET-IDC-BJ-AP IDC, China Telecommunications Corporation, CN
24.51.166.178|/Cannabiscoin:0.13.1/|70019|1246|24.51.166.0/24|US|arin|2010-10-01|TLL-WEST, US
31.25.241.224|/Cannabiscoin:0.13.1/|70019|39741|31.25.241.0/24|RU|ripencc|2011-03-10|DCE-AS, RU
39.106.249.79|/Satoshi:0.8.7.1/|70015|37963|39.106.0.0/15|CN|apnic|2011-04-05|CNNIC-ALIBABA-CN-NET-AP Hangzhou Alibaba Advertising Co.,Ltd., CN
45.86.203.129|/Cannabiscoin:0.13.1/|70019|28753|45.86.203.0/24|NL|ripencc|2019-06-13|LEASEWEB-DE-FRA-10, DE
47.149.124.52|/Cannabiscoin:0.13.1/|70019|5650|47.144.0.0/13|US|arin|2015-08-28|FRONTIER-FRTR, US
47.35.165.35|/Cannabiscoin:0.13.1/|70019|20115|47.35.128.0/18|US|arin|2014-12-23|CHARTER-20115, US
49.228.50.47|/Cannabiscoin:0.13.1/|70019|133481|49.228.48.0/22|TH|apnic|2010-11-25|AIS-FIBRE-AS-AP AIS Fibre, TH
5.13.50.215|/Cannabiscoin:0.13.1/|70019|8708|5.12.0.0/14|RO|ripencc|2012-04-27|RCS-RDS 73-75 Dr. Staicovici, RO
5.188.104.245|/Cannabiscoin:0.13.1/|70019|199860|5.188.104.0/23|RU|ripencc|2012-08-09|SDN-AS, RU
50.36.29.72|/Cannabiscoin:0.13.1/|70019|5650|50.32.0.0/12|US|arin|2010-09-24|FRONTIER-FRTR, US
51.254.44.206|/Cannabiscoin:0.13.1/|70019|16276|51.254.0.0/15|FR|ripencc|1993-09-01|OVH, FR
51.38.57.53|/Cannabiscoin:0.13.1/|70019|16276|51.38.0.0/16|FR|ripencc|1993-09-01|OVH, FR
52.39.232.122|/Cannabiscoin:0.13.1/|70019|16509|52.36.0.0/14|US|arin|2015-09-02|AMAZON-02, US
58.97.225.18|/Cannabiscoin:0.13.1/|70019|131178|58.97.225.0/24|KH|apnic|2011-01-07|KINGCORP-KH OpenNet ISP Cambodia, KH
66.151.242.154|/Cannabiscoin:0.13.1/|70019|63018|66.151.242.0/24|US|arin|2001-07-13|DEDICATED, US
66.64.43.2|/Cannabiscoin:0.13.1/|70019|11215|66.64.43.0/24|US|arin|2005-05-25|LOGIXCOMM-AS, US
67.164.22.151|/Cannabiscoin:0.13.0/|70018|7922|67.160.0.0/11|US|arin|2002-12-16|COMCAST-7922, US
67.247.20.96|/Cannabiscoin:0.13.1/|70019|12271|67.247.0.0/18|US|arin|2008-02-27|TWC-12271-NYC, US
67.3.26.181|/Cannabiscoin:0.13.1/|70019|209|67.0.0.0/13|US|arin|2001-07-26|CENTURYLINK-US-LEGACY-QWEST, US
67.3.26.251|/Cannabiscoin:0.13.1/|70019|209|67.0.0.0/13|US|arin|2001-07-26|CENTURYLINK-US-LEGACY-QWEST, US
68.107.186.101|/Cannabiscoin:0.13.1/|70019|22773|68.107.184.0/21|US|arin|2002-02-04|ASN-CXA-ALL-CCI-22773-RDC, US
68.47.241.193|/Cannabiscoin:0.13.1/|70019|7922|68.32.0.0/11|US|arin|2001-11-29|COMCAST-7922, US
69.243.12.120|/Cannabiscoin:0.13.1/|70019|7922|69.240.0.0/12|US|arin|2004-02-11|COMCAST-7922, US
70.120.101.31|/Cannabiscoin:0.13.1/|70019|11427|70.120.0.0/17|US|arin|2004-09-17|TWC-11427-TEXAS, US
72.196.131.43|/Cannabiscoin:0.13.1/|70019|22773|72.196.128.0/20|US|arin|2005-08-03|ASN-CXA-ALL-CCI-22773-RDC, US
73.38.62.199|/Cannabiscoin:0.13.1/|70019|7922|73.0.0.0/8|US|arin|2005-04-19|COMCAST-7922, US
73.70.199.68|/Cannabiscoin:0.13.1/|70019|7922|73.0.0.0/8|US|arin|2005-04-19|COMCAST-7922, US
76.110.243.253|/Cannabiscoin:0.13.1/|70019|7922|76.96.0.0/11|US|arin|2007-01-02|COMCAST-7922, US
78.27.116.203|/Cannabiscoin:0.13.1/|70019|16086|78.27.64.0/18|FI|ripencc|2007-09-07|DNA, FI
78.29.32.227|/Cannabiscoin:0.13.1/|70019|8369|78.29.32.0/19|RU|ripencc|2007-09-20|INTERSVYAZ-AS 38-B, Komsomolsky prospekt, RU
80.65.23.139|/Cannabiscoin:0.13.1/|70019|31257|80.65.16.0/21|RU|ripencc|2004-03-18|ORIONNET-NET, RU
82.192.60.186|/Cannabiscoin:0.13.1/|70019|3212|82.192.32.0/19|SI|ripencc|2003-09-18|TELEMACH Broadband Access & Carrier Services, SI
83.221.211.116|/Cannabiscoin:0.13.0/|70018|21479|83.221.192.0/19|RU|ripencc|2004-04-15|ROSTOV-TELEGRAF-AS, RU
84.210.72.200|/Cannabiscoin:0.13.1/|70019|41164|84.210.0.0/17|NO|ripencc|2005-07-07|GET-NO GET Norway, NO
85.15.179.171|/Cannabiscoin:0.13.1/|70019|12389|85.15.128.0/18|RU|ripencc|2005-04-26|ROSTELECOM-AS, RU
85.19.25.38|/Cannabiscoin:0.13.1/|70019|25400|85.19.0.0/16|NO|ripencc|2005-03-16|TELIA-NORWAY-AS Telia Norway Core Networks, NO
90.145.218.243|/Cannabiscoin:0.13.1/|70019|29396|90.145.0.0/16|NL|ripencc|2006-11-17|EUROFIBER-UNET EUROFIBER, NL
91.206.16.214|/Cannabiscoin:0.13.1/|70019|13259|91.206.16.0/23|RU|ripencc|2008-06-09|DELTA-TELESYSTEMS-AS, RU
95.111.247.164|/Cannabiscoin:0.13.1/|70019|51167|95.111.246.0/23|DE|ripencc|2008-12-30|CONTABO, DE
95.156.83.50|/Cannabiscoin:0.13.1/|70019|12389|95.156.64.0/18|RU|ripencc|2009-03-18|ROSTELECOM-AS, RU
95.79.35.133|/Cannabiscoin:0.13.1/|70019|42682|95.79.0.0/16|RU|ripencc|2008-12-10|ERTH-NNOV-AS, RU
seed.cannabiscoin.net|/Cannabiscoin:0.13.1/|70019||||||
seed2.cannabiscoin.net|/Satoshi:0.8.7.1/|70015||||||
