# https://chainz.cryptoid.info/ and whois results
# CannabisCoin
IP Address|Subver|Version|ASN|BGP Prefix|CC|Registry|Allocated|AS Name
109.22.15.31|/Cannabiscoin:0.13.1/|70019|15557|109.0.0.0/11|FR|ripencc|2009-08-13|LDCOMNET, FR
111.99.122.237|/Cannabiscoin:0.13.0/|70018|2516|111.99.0.0/16|JP|apnic|2009-06-12|KDDI KDDI CORPORATION, JP
116.202.251.195|/Cannabiscoin:0.8.9/|70017|24940|116.202.0.0/16|DE|ripencc|2011-01-17|HETZNER-AS, DE
118.71.224.238|/Cannabiscoin:0.13.1/|70019|18403|118.71.224.0/20|VN|apnic|2007-08-08|FPT-AS-AP The Corporation for Financing & Promoting Technology, VN
122.249.147.86|/Cannabiscoin:0.13.0/|70018|4685|122.249.0.0/16|JP|apnic|2006-11-20|ASAHI-NET Asahi Net, JP
126.166.21.241|/Cannabiscoin:0.13.0/|70018|17676|126.166.0.0/16|JP|apnic|2005-02-08|GIGAINFRA Softbank BB Corp., JP
136.24.44.100|/Cannabiscoin:0.13.1/|70019|19165|136.24.0.0/16|US|arin|2016-10-31|WEBPASS, US
137.135.18.91|/Cannabiscoin:0.13.1/|70019|8075|137.135.0.0/16|US|arin|2011-06-22|MICROSOFT-CORP-MSN-AS-BLOCK, US
138.68.254.94|/Cannabiscoin:0.13.0/|70018|14061|138.68.240.0/20|US|arin|2016-01-26|DIGITALOCEAN-ASN, US
144.91.77.184|/Cannabiscoin:0.13.1/|70019|51167|144.91.76.0/23|DE|ripencc|1990-11-20|CONTABO, DE
155.138.151.42|/Cannabiscoin:0.13.1/|70019|20473|155.138.128.0/19|US|arin|2018-12-05|AS-CHOOPA, US
167.86.116.187|/Cannabiscoin:0.13.1/|70019|51167|167.86.116.0/23|DE|ripencc|1993-05-14|CONTABO, DE
176.249.58.144|/Cannabiscoin:0.13.1/|70019|5607|176.248.0.0/13|GB|ripencc|2011-12-05|BSKYB-BROADBAND-AS, GB
176.31.255.61|/Cannabiscoin:0.13.1/|70019|16276|176.31.0.0/16|FR|ripencc|2011-05-20|OVH, FR
178.63.9.83|/Cannabiscoin:0.13.1/|70019|24940|178.63.0.0/16|DE|ripencc|2010-03-02|HETZNER-AS, DE
178.79.78.142|/Cannabiscoin:0.13.1/|70019|3212|178.79.64.0/18|SI|ripencc|2010-05-07|TELEMACH Broadband Access & Carrier Services, SI
184.147.176.129|/Cannabiscoin:0.13.1/|70019|577|184.147.0.0/16|CA|arin|2010-04-12|BACOM, CA
184.2.150.152|/Cannabiscoin:0.13.1/|70019|209|184.0.0.0/13|US|arin|2009-06-23|CENTURYLINK-US-LEGACY-QWEST, US
185.218.110.246|/Cannabiscoin:0.13.0/|70018|205439|185.218.108.0/22|RU|ripencc|2017-08-22|IPPARK-AS, RU
190.239.229.65|/Cannabiscoin:0.13.1/|70019|6147|190.239.192.0/18|PE|lacnic|2011-01-18|Telefonica del Peru S.A.A., PE
190.96.1.19|/Cannabiscoin:0.13.1/|70019|18822|190.96.1.0/24|CL|lacnic|2007-07-19|Manquehuenet, CL
191.254.84.211|/Cannabiscoin:0.13.1/|70019|27699|191.254.0.0/16|BR|lacnic|2013-12-27|TELEFONICA BRASIL S.A, BR
192.222.229.98|/Cannabiscoin:0.13.1/|70019|1403|192.222.224.0/19|CA|arin|2012-12-20|EBOX, CA
194.160.80.214|/Cannabiscoin:0.13.1/|70019|2607|194.160.0.0/16|SK|ripencc|1995-05-03|SANET Slovak Academic Network, SK
2.36.75.91|/Cannabiscoin:0.13.1/|70019|30722|2.36.0.0/14|IT|ripencc|2010-04-29|VODAFONE-IT-ASN, IT
203.189.130.130|/Cannabiscoin:0.13.1/|70019|23673|203.189.130.0/24|KH|apnic|2001-08-14|ONLINE-AS Cogetel Online, Cambodia, ISP, KH
203.45.35.172|/Cannabiscoin:0.13.1/|70019|1221|203.40.0.0/13|AU|apnic|1994-09-02|ASN-TELSTRA Telstra Corporation Ltd, AU
209.216.66.84|/Cannabiscoin:0.13.0/|70018|22549|209.216.64.0/19|US|arin|1998-03-27|TBDSL-01, US
212.239.180.77|/Cannabiscoin:0.13.1/|70019|5432|212.239.128.0/17|BE|ripencc|1999-11-04|PROXIMUS-ISP-AS, BE
216.60.185.233|/Cannabiscoin:0.13.1/|70019|7018|216.60.0.0/14|US|arin|1998-08-27|ATT-INTERNET4, US
221.122.37.71|/Cannabiscoin:0.13.1/|70019|23724|221.122.32.0/20|CN|apnic|2003-07-07|CHINANET-IDC-BJ-AP IDC, China Telecommunications Corporation, CN
222.252.6.58|/Cannabiscoin:0.13.1/|70019|45899|222.252.0.0/20|VN|apnic|2004-05-18|VNPT-AS-VN VNPT Corp, VN
27.106.4.155|/Cannabiscoin:0.13.1/|70019|45194|27.106.0.0/21|IN|apnic|2010-06-07|SIPL-AS Syscon Infoway Pvt. Ltd., IN
31.179.147.186|/Cannabiscoin:0.13.1/|70019|6830|31.179.0.0/16|PL|ripencc|2011-03-22|LIBERTYGLOBAL Liberty Global (formerly UPC Broadband Holding, aka AORTA), NL
31.186.221.78|/Cannabiscoin:0.13.1/|70019|6830|31.186.192.0/19|PL|ripencc|2011-03-24|LIBERTYGLOBAL Liberty Global (formerly UPC Broadband Holding, aka AORTA), NL
31.25.241.224|/Cannabiscoin:0.13.1/|70019|39741|31.25.241.0/24|RU|ripencc|2011-03-10|DCE-AS, RU
31.4.242.165|/Cannabiscoin:0.13.1/|70019|12430|31.4.0.0/16|ES|ripencc|2011-04-07|VODAFONE_ES, ES
39.106.249.79|/Satoshi:0.8.7.1/|70015|37963|39.106.0.0/15|CN|apnic|2011-04-05|CNNIC-ALIBABA-CN-NET-AP Hangzhou Alibaba Advertising Co.,Ltd., CN
46.244.184.195|/Cannabiscoin:0.13.1/|70019|8767|46.244.128.0/17|DE|ripencc|2010-12-29|MNET-AS Germany, DE
47.35.165.35|/Cannabiscoin:0.13.1/|70019|20115|47.35.128.0/18|US|arin|2014-12-23|CHARTER-20115, US
49.228.50.182|/Cannabiscoin:0.13.1/|70019|133481|49.228.48.0/22|TH|apnic|2010-11-25|AIS-FIBRE-AS-AP AIS Fibre, TH
5.188.104.245|/Cannabiscoin:0.13.1/|70019|199860|5.188.104.0/23|RU|ripencc|2012-08-09|SDN-AS, RU
51.254.44.206|/Cannabiscoin:0.13.1/|70019|16276|51.254.0.0/15|FR|ripencc|1993-09-01|OVH, FR
51.38.57.53|/Cannabiscoin:0.13.1/|70019|16276|51.38.0.0/16|FR|ripencc|1993-09-01|OVH, FR
52.39.232.122|/Cannabiscoin:0.13.1/|70019|16509|52.36.0.0/14|US|arin|2015-09-02|AMAZON-02, US
62.171.162.84|/Cannabiscoin:0.13.1/|70019|51167|62.171.162.0/23|DE|ripencc|2000-08-18|CONTABO, DE
66.151.242.154|/Cannabiscoin:0.13.1/|70019|63018|66.151.242.0/24|US|arin|2001-07-13|DEDICATED, US
66.64.43.2|/Cannabiscoin:0.13.1/|70019|11215|66.64.43.0/24|US|arin|2005-05-25|LOGIXCOMM-AS, US
67.247.20.96|/Cannabiscoin:0.13.1/|70019|12271|67.247.0.0/18|US|arin|2008-02-27|TWC-12271-NYC, US
67.3.26.251|/Cannabiscoin:0.13.1/|70019|209|67.0.0.0/13|US|arin|2001-07-26|CENTURYLINK-US-LEGACY-QWEST, US
68.224.97.244|/Cannabiscoin:0.13.1/|70019|22773|68.224.0.0/17|US|arin|2003-03-19|ASN-CXA-ALL-CCI-22773-RDC, US
68.47.241.193|/Cannabiscoin:0.13.1/|70019|7922|68.32.0.0/11|US|arin|2001-11-29|COMCAST-7922, US
69.243.12.120|/Cannabiscoin:0.13.1/|70019|7922|69.240.0.0/12|US|arin|2004-02-11|COMCAST-7922, US
70.120.101.31|/Cannabiscoin:0.13.1/|70019|11427|70.120.0.0/17|US|arin|2004-09-17|TWC-11427-TEXAS, US
72.196.131.43|/Cannabiscoin:0.13.1/|70019|22773|72.196.128.0/20|US|arin|2005-08-03|ASN-CXA-ALL-CCI-22773-RDC, US
73.121.145.168|/Cannabiscoin:0.13.1/|70019|7922|73.0.0.0/8|US|arin|2005-04-19|COMCAST-7922, US
73.70.199.68|/Cannabiscoin:0.13.1/|70019|7922|73.0.0.0/8|US|arin|2005-04-19|COMCAST-7922, US
76.110.243.253|/Cannabiscoin:0.13.1/|70019|7922|76.96.0.0/11|US|arin|2007-01-02|COMCAST-7922, US
78.27.116.203|/Cannabiscoin:0.13.1/|70019|16086|78.27.64.0/18|FI|ripencc|2007-09-07|DNA, FI
78.29.32.227|/Cannabiscoin:0.13.1/|70019|8369|78.29.32.0/19|RU|ripencc|2007-09-20|INTERSVYAZ-AS 38-B, Komsomolsky prospekt, RU
80.209.235.162|/Cannabiscoin:0.13.1/|70019|62282|80.209.224.0/20|LT|ripencc|2001-12-12|RACKRAY UAB Rakrejus, LT
80.65.23.139|/Cannabiscoin:0.13.1/|70019|31257|80.65.16.0/21|RU|ripencc|2004-03-18|ORIONNET-NET, RU
83.221.211.116|/Cannabiscoin:0.13.0/|70018|21479|83.221.192.0/19|RU|ripencc|2004-04-15|ROSTOV-TELEGRAF-AS, RU
84.210.72.200|/Cannabiscoin:0.13.1/|70019|41164|84.210.0.0/17|NO|ripencc|2005-07-07|GET-NO GET Norway, NO
85.15.179.171|/Cannabiscoin:0.13.1/|70019|12389|85.15.128.0/18|RU|ripencc|2005-04-26|ROSTELECOM-AS, RU
85.19.25.38|/Cannabiscoin:0.13.1/|70019|25400|85.19.0.0/16|NO|ripencc|2005-03-16|TELIA-NORWAY-AS Telia Norway Core Networks, NO
89.133.215.246|/Cannabiscoin:0.13.1/|70019|6830|89.132.0.0/15|HU|ripencc|2006-01-17|LIBERTYGLOBAL Liberty Global (formerly UPC Broadband Holding, aka AORTA), NL
89.21.131.54|/Satoshi:0.8.7/|70014|15672|89.21.128.0/22|RU|ripencc|2006-09-20|TZTELECOM advertise with no-export community (not available in all areas) x=7, RU
90.145.218.243|/Cannabiscoin:0.13.1/|70019|29396|90.145.0.0/16|NL|ripencc|2006-11-17|EUROFIBER-UNET EUROFIBER, NL
90.205.145.74|/Satoshi:0.8.7/|70014|5607|90.192.0.0/11|GB|ripencc|2006-05-31|BSKYB-BROADBAND-AS, GB
91.206.16.214|/Cannabiscoin:0.13.1/|70019|13259|91.206.16.0/23|RU|ripencc|2008-06-09|DELTA-TELESYSTEMS-AS, RU
93.241.68.11|/Cannabiscoin:0.13.1/|70019|3320|93.192.0.0/10|DE|ripencc|2008-02-12|DTAG Internet service provider operations, DE
95.111.247.164|/Cannabiscoin:0.13.1/|70019|51167|95.111.246.0/23|DE|ripencc|2008-12-30|CONTABO, DE
95.115.26.51|/Satoshi:0.8.7/|70014|6805|95.112.0.0/13|DE|ripencc|2008-11-26|TDDE-ASN1, DE
95.156.83.50|/Cannabiscoin:0.13.1/|70019|12389|95.156.64.0/18|RU|ripencc|2009-03-18|ROSTELECOM-AS, RU
95.79.35.133|/Cannabiscoin:0.13.1/|70019|42682|95.79.0.0/16|RU|ripencc|2008-12-10|ERTH-NNOV-AS, RU
95.90.203.69|/Cannabiscoin:0.13.1/|70019|3209|95.88.0.0/14|DE|ripencc|2008-12-15|VODANET International IP-Backbone of Vodafone, DE
seed.cannabiscoin.net|/Cannabiscoin:0.13.1/|70019||||||
seed2.cannabiscoin.net|/Satoshi:0.8.7.1/|70015||||||
