# https://chainz.cryptoid.info/ and whois results
# CannabisCoin
IP Address|Subver|Version|ASN|BGP Prefix|CC|Registry|Allocated|AS Name
103.96.141.121|/Cannabiscoin:0.13.1/|70019|136805|103.96.141.0/24|AU|apnic|2017-07-07|NGVPL-AS-AP Next Generation Voice PTY LTD, AU
109.22.15.31|/Cannabiscoin:0.13.1/|70019|15557|109.0.0.0/11|FR|ripencc|2009-08-13|LDCOMNET, FR
116.202.251.195|/Cannabiscoin:0.8.9/|70017|24940|116.202.0.0/16|DE|ripencc|2011-01-17|HETZNER-AS, DE
136.24.44.100|/Cannabiscoin:0.13.1/|70019|19165|136.24.0.0/16|US|arin|2016-10-31|WEBPASS, US
136.32.141.74|/Cannabiscoin:0.13.1/|70019|16591|136.32.128.0/20|US|arin|2015-10-06|GOOGLE-FIBER, US
137.135.18.91|/Cannabiscoin:0.13.1/|70019|8075|137.135.0.0/16|US|arin|2011-06-22|MICROSOFT-CORP-MSN-AS-BLOCK, US
138.68.243.35|/Cannabiscoin:0.13.1/|70019|14061|138.68.240.0/20|US|arin|2016-01-26|DIGITALOCEAN-ASN, US
138.68.254.94|/Cannabiscoin:0.13.0/|70018|14061|138.68.240.0/20|US|arin|2016-01-26|DIGITALOCEAN-ASN, US
143.178.232.181|/Cannabiscoin:0.13.1/|70019|50266|143.178.128.0/17|NL|ripencc|1990-10-01|TMOBILE-THUIS, NL
144.91.77.184|/Cannabiscoin:0.13.1/|70019|51167|144.91.76.0/23|DE|ripencc|1990-11-20|CONTABO, DE
146.241.151.76|/Cannabiscoin:0.13.1/|70019|35612|146.241.144.0/20|IT|ripencc|1993-03-03|NGI-AS, IT
151.231.31.108|/Satoshi:0.8.7/|70014|5607|151.224.0.0/13|GB|ripencc|2012-08-09|BSKYB-BROADBAND-AS, GB
155.138.151.42|/Cannabiscoin:0.13.1/|70019|20473|155.138.128.0/19|US|arin|2018-12-05|AS-CHOOPA, US
167.86.116.187|/Cannabiscoin:0.13.1/|70019|51167|167.86.116.0/23|DE|ripencc|1993-05-14|CONTABO, DE
172.127.123.113|/Cannabiscoin:0.13.1/|70019|7018|172.124.0.0/14|US|arin|2015-07-06|ATT-INTERNET4, US
176.27.155.70|/Satoshi:0.8.7/|70014|5607|176.24.0.0/14|GB|ripencc|2011-05-19|BSKYB-BROADBAND-AS, GB
176.8.244.112|/Cannabiscoin:0.13.1/|70019|15895|176.8.0.0/16|UA|ripencc|2011-05-13|KSNET-AS, UA
178.63.9.83|/Cannabiscoin:0.13.1/|70019|24940|178.63.0.0/16|DE|ripencc|2010-03-02|HETZNER-AS, DE
178.79.78.142|/Cannabiscoin:0.13.1/|70019|3212|178.79.64.0/18|SI|ripencc|2010-05-07|TELEMACH Broadband Access & Carrier Services, SI
184.147.145.224|/Cannabiscoin:0.13.1/|70019|577|184.147.0.0/16|CA|arin|2010-04-12|BACOM, CA
184.2.150.152|/Cannabiscoin:0.13.1/|70019|209|184.0.0.0/13|US|arin|2009-06-23|CENTURYLINK-US-LEGACY-QWEST, US
186.32.219.64|/Cannabiscoin:0.13.1/|70019|262197|186.32.218.0/23|CR|lacnic|2011-06-24|MILLICOM CABLE COSTA RICA S.A., CR
186.94.67.42|/Cannabiscoin:0.13.1/|70019|8048|186.94.64.0/19|VE|lacnic|2009-11-18|CANTV Servicios, Venezuela, VE
190.203.205.143|/Cannabiscoin:0.13.1/|70019|8048|190.203.192.0/19|VE|lacnic|2007-06-13|CANTV Servicios, Venezuela, VE
190.204.140.4|/Cannabiscoin:0.13.1/|70019|8048|190.204.128.0/19|VE|lacnic|2007-06-13|CANTV Servicios, Venezuela, VE
190.204.175.218|/Cannabiscoin:0.13.1/|70019|8048|190.204.160.0/19|VE|lacnic|2007-06-13|CANTV Servicios, Venezuela, VE
190.96.1.19|/Cannabiscoin:0.13.1/|70019|18822|190.96.1.0/24|CL|lacnic|2007-07-19|Manquehuenet, CL
192.222.229.98|/Cannabiscoin:0.13.1/|70019|1403|192.222.224.0/19|CA|arin|2012-12-20|EBOX, CA
194.160.80.214|/Cannabiscoin:0.13.1/|70019|2607|194.160.0.0/16|SK|ripencc|1995-05-03|SANET Slovak Academic Network, SK
216.161.135.9|/Cannabiscoin:0.13.1/|70019|209|216.160.0.0/15|US|arin|1998-12-16|CENTURYLINK-US-LEGACY-QWEST, US
221.122.37.71|/Cannabiscoin:0.13.1/|70019|23724|221.122.32.0/20|CN|apnic|2003-07-07|CHINANET-IDC-BJ-AP IDC, China Telecommunications Corporation, CN
222.252.6.58|/Cannabiscoin:0.13.1/|70019|45899|222.252.0.0/20|VN|apnic|2004-05-18|VNPT-AS-VN VNPT Corp, VN
23.162.0.3|/Cannabiscoin:0.13.1/|70019|394972|23.162.0.0/24|US|arin|2016-03-21|VALLEY-COMMUNICATIONS, US
31.25.241.224|/Cannabiscoin:0.13.1/|70019|39741|31.25.241.0/24|RU|ripencc|2011-03-10|DCE-AS, RU
39.106.249.79|/Satoshi:0.8.7.1/|70015|37963|39.106.0.0/15|CN|apnic|2011-04-05|CNNIC-ALIBABA-CN-NET-AP Hangzhou Alibaba Advertising Co.,Ltd., CN
46.172.27.161|/Cannabiscoin:0.13.1/|70019|197023|46.172.27.0/24|RU|ripencc|2011-02-04|ASCOMTELTV MTS Belgorod branch, RU
47.35.165.35|/Cannabiscoin:0.13.1/|70019|20115|47.35.128.0/18|US|arin|2014-12-23|CHARTER-20115, US
49.228.51.119|/Cannabiscoin:0.13.1/|70019|133481|49.228.48.0/22|TH|apnic|2010-11-25|AIS-FIBRE-AS-AP AIS Fibre, TH
49.228.51.9|/Cannabiscoin:0.13.1/|70019|133481|49.228.48.0/22|TH|apnic|2010-11-25|AIS-FIBRE-AS-AP AIS Fibre, TH
5.188.104.245|/Cannabiscoin:0.13.1/|70019|199860|5.188.104.0/23|RU|ripencc|2012-08-09|SDN-AS, RU
51.254.44.206|/Cannabiscoin:0.13.1/|70019|16276|51.254.0.0/15|FR|ripencc|1993-09-01|OVH, FR
51.38.57.53|/Cannabiscoin:0.13.1/|70019|16276|51.38.0.0/16|FR|ripencc|1993-09-01|OVH, FR
52.39.232.122|/Cannabiscoin:0.13.1/|70019|16509|52.36.0.0/14|US|arin|2015-09-02|AMAZON-02, US
66.151.242.154|/Cannabiscoin:0.13.1/|70019|63018|66.151.242.0/24|US|arin|2001-07-13|DEDICATED, US
67.2.194.165|/Cannabiscoin:0.13.1/|70019|209|67.2.0.0/16|US|arin|2001-07-26|CENTURYLINK-US-LEGACY-QWEST, US
67.247.20.96|/Cannabiscoin:0.13.1/|70019|12271|67.247.0.0/18|US|arin|2008-02-27|TWC-12271-NYC, US
67.3.40.103|/Cannabiscoin:0.13.1/|70019|209|67.0.0.0/13|US|arin|2001-07-26|CENTURYLINK-US-LEGACY-QWEST, US
67.3.40.218|/Cannabiscoin:0.13.1/|70019|209|67.0.0.0/13|US|arin|2001-07-26|CENTURYLINK-US-LEGACY-QWEST, US
68.47.241.193|/Cannabiscoin:0.13.1/|70019|7922|68.32.0.0/11|US|arin|2001-11-29|COMCAST-7922, US
69.250.88.184|/Cannabiscoin:0.13.1/|70019|7922|69.240.0.0/12|US|arin|2004-02-11|COMCAST-7922, US
70.120.101.31|/Cannabiscoin:0.13.1/|70019|11427|70.120.0.0/17|US|arin|2004-09-17|TWC-11427-TEXAS, US
71.94.159.239|/Cannabiscoin:0.13.1/|70019|20115|71.94.128.0/19|US|arin|2005-05-19|CHARTER-20115, US
73.21.229.217|/Cannabiscoin:0.13.1/|70019|7922|73.0.0.0/8|US|arin|2005-04-19|COMCAST-7922, US
78.27.116.203|/Cannabiscoin:0.13.1/|70019|16086|78.27.64.0/18|FI|ripencc|2007-09-07|DNA, FI
78.29.32.227|/Cannabiscoin:0.13.1/|70019|8369|78.29.32.0/19|RU|ripencc|2007-09-20|INTERSVYAZ-AS 38-B, Komsomolsky prospekt, RU
80.49.252.174|/Satoshi:0.8.7/|70014|5617|80.48.0.0/14|PL|ripencc|2001-12-18|TPNET, PL
80.65.23.139|/Cannabiscoin:0.13.1/|70019|31257|80.65.16.0/21|RU|ripencc|2004-03-18|ORIONNET-NET, RU
82.207.238.247|/Cannabiscoin:0.13.1/|70019|8881|82.207.238.0/24|DE|ripencc|2003-12-02|VERSATEL, DE
83.221.211.116|/Cannabiscoin:0.13.0/|70018|21479|83.221.192.0/19|RU|ripencc|2004-04-15|ROSTOV-TELEGRAF-AS, RU
84.121.174.90|/Cannabiscoin:0.13.1/|70019|12357|84.121.160.0/20|ES|ripencc|2004-04-15|COMUNITEL SPAIN, ES
85.15.179.171|/Cannabiscoin:0.13.1/|70019|12389|85.15.128.0/18|RU|ripencc|2005-04-26|ROSTELECOM-AS, RU
85.19.25.38|/Cannabiscoin:0.13.1/|70019|3292|85.19.0.0/16|NO|ripencc|2005-03-16|TDC TDC A/S, DK
90.145.218.243|/Cannabiscoin:0.13.1/|70019|29396|90.145.0.0/16|NL|ripencc|2006-11-17|EUROFIBER-UNET EUROFIBER, NL
90.187.250.25|/Cannabiscoin:0.13.1/|70019|3209|90.187.0.0/16|DE|ripencc|2006-11-09|VODANET International IP-Backbone of Vodafone, DE
91.206.16.214|/Cannabiscoin:0.13.1/|70019|13259|91.206.16.0/23|RU|ripencc|2008-06-09|DELTA-TELESYSTEMS-AS, RU
91.210.26.40|/Satoshi:0.8.7/|70014|48078|91.210.26.0/24|RU|ripencc|2008-10-08|DAGOMYS-AS, RU
93.241.68.11|/Cannabiscoin:0.13.1/|70019|3320|93.192.0.0/10|DE|ripencc|2008-02-12|DTAG Internet service provider operations, DE
94.25.169.230|/Satoshi:0.8.7/|70014|25159|94.25.168.0/21|RU|ripencc|2008-06-10|SONICDUO-AS, RU
95.111.247.164|/Cannabiscoin:0.13.1/|70019|51167|95.111.246.0/23|DE|ripencc|2008-12-30|CONTABO, DE
95.156.83.50|/Cannabiscoin:0.13.1/|70019|12389|95.156.64.0/18|RU|ripencc|2009-03-18|ROSTELECOM-AS, RU
96.2.180.76|/Cannabiscoin:0.13.1/|70019|11232|96.2.0.0/16|US|arin|2007-01-08|MIDCO-NET, US
seed.cannabiscoin.net|/Cannabiscoin:0.13.1/|70019||||||
seed2.cannabiscoin.net|/Cannabiscoin:0.13.1/|70019||||||
