# https://chainz.cryptoid.info/ and whois results
# CannabisCoin
IP Address|Subver|Version|ASN|BGP Prefix|CC|Registry|Allocated|AS Name
109.252.131.248|/Cannabiscoin:0.13.1/|70019|25513|109.252.0.0/16|RU|ripencc|2009-12-07|ASN-MGTS-USPD, RU
116.202.251.195|/Cannabiscoin:0.8.9/|70017|24940|116.202.0.0/16|DE|ripencc|2011-01-17|HETZNER-AS, DE
118.71.224.238|/Cannabiscoin:0.13.1/|70019|18403|118.71.224.0/20|VN|apnic|2007-08-08|FPT-AS-AP The Corporation for Financing & Promoting Technology, VN
136.32.141.74|/Cannabiscoin:0.13.1/|70019|16591|136.32.128.0/20|US|arin|2015-10-06|GOOGLE-FIBER, US
137.135.18.91|/Cannabiscoin:0.13.1/|70019|8075|137.135.0.0/16|US|arin|2011-06-22|MICROSOFT-CORP-MSN-AS-BLOCK, US
138.68.243.35|/Cannabiscoin:0.13.1/|70019|14061|138.68.240.0/20|US|arin|2016-01-26|DIGITALOCEAN-ASN, US
138.68.254.94|/Cannabiscoin:0.13.0/|70018|14061|138.68.240.0/20|US|arin|2016-01-26|DIGITALOCEAN-ASN, US
144.91.77.184|/Cannabiscoin:0.13.1/|70019|51167|144.91.76.0/23|DE|ripencc|1990-11-20|CONTABO, DE
146.241.219.210|/Cannabiscoin:0.13.1/|70019|35612|146.241.208.0/20|IT|ripencc|1993-03-03|NGI-AS, IT
151.37.148.224|/Cannabiscoin:0.13.1/|70019|1267|151.37.0.0/16|IT|ripencc|1991-05-13|ASN-WINDTRE IUNET, IT
155.138.151.42|/Cannabiscoin:0.13.2/|70019|20473|155.138.128.0/19|US|arin|2018-12-05|AS-CHOOPA, US
161.97.187.181|/Cannabiscoin:0.13.1/|70019|51167|161.97.184.0/22|DE|ripencc|1992-06-23|CONTABO, DE
162.213.171.153|/Cannabiscoin:0.13.1/|70019|40945|162.213.170.0/23|DM|arin|2013-06-11|SATTEL, DM
167.86.116.187|/Cannabiscoin:0.13.1/|70019|51167|167.86.116.0/23|DE|ripencc|1993-05-14|CONTABO, DE
172.56.2.122|/Cannabiscoin:0.13.1/|70019|21928|172.56.2.0/23|US|arin|2012-09-18|T-MOBILE-AS21928, US
172.56.2.166|/Cannabiscoin:0.13.1/|70019|21928|172.56.2.0/23|US|arin|2012-09-18|T-MOBILE-AS21928, US
176.32.25.136|/Cannabiscoin:0.13.1/|70019|198471|176.32.25.0/24|IT|ripencc|2011-05-23|LINKEM-AS, IT
178.121.166.88|/Cannabiscoin:0.13.1/|70019|6697|178.120.0.0/15|BY|ripencc|2009-12-10|BELPAK-AS BELPAK, BY
178.63.9.83|/Cannabiscoin:0.13.2/|70019|24940|178.63.0.0/16|DE|ripencc|2010-03-02|HETZNER-AS, DE
178.79.78.142|/Cannabiscoin:0.13.1/|70019|3212|178.79.64.0/18|SI|ripencc|2010-05-07|TELEMACH Broadband Access & Carrier Services, SI
185.145.124.249|/Cannabiscoin:0.13.1/|70019|50254|185.145.124.0/24|RU|ripencc|2016-04-01|SKY-EN, RU
185.219.6.253|/Cannabiscoin:0.13.1/|70019|44854|185.219.6.0/24|NL|ripencc|2020-11-24|ERITAP-AS, NL
186.28.5.116|/Cannabiscoin:0.13.1/|70019|19429|186.28.4.0/22|CO|lacnic|2009-02-25|ETB - Colombia, CO
190.193.129.199|/Cannabiscoin:0.13.1/|70019|7303|190.193.128.0/19|AR|lacnic|2009-02-02|Telecom Argentina S.A., AR
190.2.131.202|/Cannabiscoin:0.13.1/|70019|49981|190.2.128.0/20|CW|lacnic|2006-04-28|WORLDSTREAM, NL
190.237.13.26|/Cannabiscoin:0.13.1/|70019|6147|190.237.0.0/19|PE|lacnic|2010-06-11|Telefonica del Peru S.A.A., PE
190.96.1.19|/Cannabiscoin:0.13.1/|70019|18822|190.96.1.0/24|CL|lacnic|2007-07-19|Manquehuenet, CL
192.222.229.98|/Cannabiscoin:0.13.1/|70019|1403|192.222.224.0/19|CA|arin|2012-12-20|EBOX, CA
194.160.80.214|/Cannabiscoin:0.13.1/|70019|2607|194.160.0.0/16|SK|ripencc|1995-05-03|SANET Slovak Academic Network, SK
194.8.47.237|/Cannabiscoin:0.13.1/|70019|35723|194.8.47.0/24|RU|ripencc|2005-08-26|ASN-TTCL, RU
195.201.176.91|/Satoshi:0.8.7.1/|70015|24940|195.201.0.0/16|DE|ripencc|1997-09-22|HETZNER-AS, DE
195.80.150.230|/Cannabiscoin:0.13.1/|70019|206804|195.80.150.0/24|US|ripencc|2019-06-26|ESTNOC-AS, EE
196.50.100.245|/Cannabiscoin:0.13.1/|70019|37650|196.50.64.0/18|ZA|afrinic|2017-01-20|CM-Value-AS, ZA
197.185.108.228|/Cannabiscoin:0.13.2/|70019|37105|197.185.108.0/23|ZA|afrinic|2012-12-06|rain, ZA
2.223.125.114|/Cannabiscoin:0.13.1/|70019|5607|2.216.0.0/13|GB|ripencc|2010-12-03|BSKYB-BROADBAND-AS, GB
2.60.120.162|/Cannabiscoin:0.13.1/|70019|12389|2.60.0.0/16|RU|ripencc|2010-10-08|ROSTELECOM-AS, RU
209.216.94.139|/Cannabiscoin:0.13.0/|70018|398779|209.216.94.0/24|US|arin|1998-03-27|ACEHOST, US
213.234.251.148|/Cannabiscoin:0.13.1/|70019|16345|213.234.251.0/24|RU|ripencc|2003-05-23|BEE-AS Russia, RU
216.47.57.197|/Cannabiscoin:0.13.1/|70019|21947|216.47.48.0/20|US|arin|2004-09-14|BCI, US
216.60.185.233|/Cannabiscoin:0.13.1/|70019|7018|216.60.0.0/14|US|arin|1998-08-27|ATT-INTERNET4, US
217.138.205.106|/Cannabiscoin:0.13.1/|70019|9009|217.138.205.0/24|GB|ripencc|2001-01-31|M247, GB
220.244.158.210|/Cannabiscoin:0.13.2/|70019|7545|220.244.158.0/24|AU|apnic|2003-06-18|TPG-INTERNET-AP TPG Telecom Limited, AU
221.122.37.71|/Cannabiscoin:0.13.1/|70019|23724|221.122.32.0/20|CN|apnic|2003-07-07|CHINANET-IDC-BJ-AP IDC, China Telecommunications Corporation, CN
222.252.6.58|/Cannabiscoin:0.13.1/|70019|45899|222.252.0.0/20|VN|apnic|2004-05-18|VNPT-AS-VN VNPT Corp, VN
24.234.239.50|/Cannabiscoin:0.13.1/|70019|22773|24.234.0.0/16|US|arin|1997-07-22|ASN-CXA-ALL-CCI-22773-RDC, US
24.4.248.11|/Cannabiscoin:0.13.1/|70019|7922|24.0.0.0/12|US|arin|2003-10-06|COMCAST-7922, US
27.106.4.159|/Cannabiscoin:0.13.1/|70019|45194|27.106.4.0/24|IN|apnic|2010-06-07|SIPL-AS Syscon Infoway Pvt. Ltd., IN
31.25.241.224|/Cannabiscoin:0.13.1/|70019|39741|31.25.241.0/24|RU|ripencc|2011-03-10|DCE-AS, RU
37.76.30.111|/Cannabiscoin:0.13.1/|70019|5483|37.76.0.0/17|HU|ripencc|2012-01-31|MAGYAR-TELEKOM-MAIN-AS Magyar Telekom Nyrt., HU
38.29.203.163|/Cannabiscoin:0.13.2/|70019|16468|38.29.203.0/24|US|arin|1991-04-16|AIRFIBER, US
45.24.48.210|/Cannabiscoin:0.13.1/|70019|7018|45.16.0.0/12|US|arin|2014-12-11|ATT-INTERNET4, US
45.36.201.60|/Cannabiscoin:0.13.1/|70019|11426|45.36.0.0/15|US|arin|2015-02-11|TWC-11426-CAROLINAS, US
46.172.12.211|/Cannabiscoin:0.13.2/|70019|197023|46.172.12.0/22|RU|ripencc|2011-02-04|ASCOMTELTV MTS Belgorod branch, RU
47.149.124.52|/Cannabiscoin:0.13.1/|70019|5650|47.144.0.0/13|US|arin|2015-08-28|FRONTIER-FRTR, US
47.35.165.35|/Cannabiscoin:0.13.1/|70019|20115|47.35.128.0/18|US|arin|2014-12-23|CHARTER-20115, US
49.228.48.132|/Cannabiscoin:0.13.1/|70019|133481|49.228.48.0/22|TH|apnic|2010-11-25|AIS-FIBRE-AS-AP AIS Fibre, TH
5.188.104.245|/Cannabiscoin:0.13.1/|70019|199860|5.188.104.0/23|RU|ripencc|2012-08-09|SDN-AS, RU
5.2.217.182|/Cannabiscoin:0.13.1/|70019|8708|5.2.128.0/17|RO|ripencc|2012-04-27|RCS-RDS 73-75 Dr. Staicovici, RO
51.254.44.206|/Cannabiscoin:0.13.1/|70019|16276|51.254.0.0/15|FR|ripencc|1993-09-01|OVH, FR
51.68.204.201|/Cannabiscoin:0.13.1/|70019|16276|51.68.0.0/16|FR|ripencc|1993-09-01|OVH, FR
52.39.232.122|/Cannabiscoin:0.13.1/|70019|16509|52.36.0.0/14|US|arin|1991-12-19|AMAZON-02, US
58.97.222.104|/Cannabiscoin:0.13.1/|70019|131178|58.97.222.0/24|KH|apnic|2011-01-07|KINGCORP-KH OpenNet ISP Cambodia, KH
66.151.242.154|/Cannabiscoin:0.13.1/|70019|63018|66.151.242.0/24|US|arin|2001-07-13|DEDICATED, US
67.2.170.44|/Cannabiscoin:0.13.1/|70019|209|67.2.0.0/16|US|arin|2001-07-26|CENTURYLINK-US-LEGACY-QWEST, US
67.247.20.96|/Cannabiscoin:0.13.1/|70019|12271|67.247.0.0/18|US|arin|2008-02-27|TWC-12271-NYC, US
68.107.186.131|/Cannabiscoin:0.13.1/|70019|22773|68.107.184.0/21|US|arin|2002-02-04|ASN-CXA-ALL-CCI-22773-RDC, US
68.118.82.92|/Cannabiscoin:0.13.1/|70019|20115|68.118.80.0/20|US|arin|2002-03-14|CHARTER-20115, US
68.47.241.193|/Cannabiscoin:0.13.1/|70019|7922|68.32.0.0/11|US|arin|2001-11-29|COMCAST-7922, US
69.174.145.103|/Cannabiscoin:0.13.1/|70019|30600|69.174.128.0/19|US|arin|2009-04-29|AS-CMN, US
69.243.12.120|/Cannabiscoin:0.13.1/|70019|7922|69.240.0.0/12|US|arin|2004-02-11|COMCAST-7922, US
70.120.101.31|/Cannabiscoin:0.13.1/|70019|11427|70.120.0.0/17|US|arin|2004-09-17|TWC-11427-TEXAS, US
70.176.5.126|/Cannabiscoin:0.13.2/|70019|22773|70.176.0.0/16|US|arin|2004-07-21|ASN-CXA-ALL-CCI-22773-RDC, US
72.222.189.193|/Cannabiscoin:0.13.2/|70019|22773|72.222.128.0/17|US|arin|2005-08-03|ASN-CXA-ALL-CCI-22773-RDC, US
73.154.97.212|/Cannabiscoin:0.13.1/|70019|7922|73.0.0.0/8|US|arin|2005-04-19|COMCAST-7922, US
75.146.49.210|/Cannabiscoin:0.13.1/|70019|7922|75.144.0.0/13|US|arin|2006-09-25|COMCAST-7922, US
75.82.185.108|/Cannabiscoin:0.13.1/|70019|20001|75.82.0.0/15|US|arin|2006-07-19|TWC-20001-PACWEST, US
78.37.19.95|/Cannabiscoin:0.13.1/|70019|12389|78.37.16.0/22|RU|ripencc|2007-03-16|ROSTELECOM-AS, RU
79.111.14.246|/Cannabiscoin:0.13.1/|70019|12714|79.111.0.0/16|RU|ripencc|2008-02-15|TI-AS Moscow, Russia, RU
79.45.80.153|/Cannabiscoin:0.13.1/|70019|3269|79.44.0.0/15|IT|ripencc|2007-02-21|ASN-IBSNAZ, IT
80.130.57.51|/Cannabiscoin:0.13.1/|70019|3320|80.128.0.0/12|DE|ripencc|2001-08-06|DTAG Internet service provider operations, DE
80.130.60.24|/Cannabiscoin:0.13.1/|70019|3320|80.128.0.0/12|DE|ripencc|2001-08-06|DTAG Internet service provider operations, DE
80.65.23.139|/Cannabiscoin:0.13.1/|70019|31257|80.65.16.0/21|RU|ripencc|2004-03-18|ORIONNET-KRK, RU
83.221.211.116|/Cannabiscoin:0.13.0/|70018|21479|83.221.192.0/19|RU|ripencc|2004-04-15|ROSTOV-TELEGRAF-AS, RU
84.168.78.94|/Cannabiscoin:0.13.2/|70019|3320|84.128.0.0/10|DE|ripencc|2004-03-10|DTAG Internet service provider operations, DE
84.251.83.128|/Cannabiscoin:0.13.1/|70019|1759|84.248.0.0/14|FI|ripencc|2004-06-02|TSF-IP-CORE Telia Finland Oyj, FI
85.15.179.171|/Cannabiscoin:0.13.1/|70019|12389|85.15.128.0/18|RU|ripencc|2005-04-26|ROSTELECOM-AS, RU
85.16.151.144|/Cannabiscoin:0.13.1/|70019|9145|85.16.0.0/16|DE|ripencc|2005-03-07|EWETEL Cloppenburger Strasse 310, DE
85.19.25.38|/Cannabiscoin:0.13.2/|70019|25400|85.19.0.0/16|NO|ripencc|2005-03-16|TELIA-NORWAY-AS Telia Norway Core Networks, NO
85.214.29.227|/Cannabiscoin:0.13.2/|70019|6724|85.214.0.0/15|DE|ripencc|2005-02-24|STRATO STRATO AG, DE
85.221.140.206|/Cannabiscoin:0.13.1/|70019|13110|85.221.128.0/17|PL|ripencc|2005-02-08|INEA-AS, PL
85.29.87.172|/Cannabiscoin:0.13.1/|70019|13170|85.29.64.0/18|FI|ripencc|2005-05-12|KPO-AS, FI
87.123.118.102|/Cannabiscoin:0.13.1/|70019|8881|87.123.112.0/20|DE|ripencc|2005-07-27|VERSATEL, DE
90.151.149.192|/Cannabiscoin:0.13.1/|70019|12389|90.151.144.0/20|RU|ripencc|2006-12-19|ROSTELECOM-AS, RU
91.206.16.214|/Cannabiscoin:0.13.1/|70019|13259|91.206.16.0/23|RU|ripencc|2008-06-09|DELTA-TELESYSTEMS-AS, RU
91.224.207.14|/Cannabiscoin:0.13.1/|70019|56493|91.224.206.0/23|RU|ripencc|2011-03-03|DLINE-AS, RU
92.195.30.166|/Cannabiscoin:0.13.0/|70018|20676|92.192.0.0/13|DE|ripencc|2007-10-17|PLUSNET *****************, DE
93.107.125.126|/Cannabiscoin:0.13.1/|70019|15502|93.107.0.0/16|IE|ripencc|2008-04-09|VODAFONE-IRELAND-ASN, IE
93.240.2.251|/Cannabiscoin:0.13.1/|70019|3320|93.192.0.0/10|DE|ripencc|2008-02-12|DTAG Internet service provider operations, DE
94.25.173.237|/Cannabiscoin:0.13.1/|70019|25159|94.25.168.0/21|RU|ripencc|2008-06-10|SONICDUO-AS, RU
94.61.75.88|/Cannabiscoin:0.13.1/|70019|12353|94.60.0.0/14|PT|ripencc|2008-06-23|VODAFONE-PT Vodafone Portugal, PT
95.111.247.164|/Cannabiscoin:0.13.2/|70019|51167|95.111.246.0/23|DE|ripencc|2008-12-30|CONTABO, DE
95.79.35.133|/Cannabiscoin:0.13.1/|70019|42682|95.79.0.0/16|RU|ripencc|2008-12-10|ERTH-NNOV-AS, RU
99.148.47.138|/Cannabiscoin:0.13.1/|70019|7018|99.148.0.0/15|US|arin|2007-08-29|ATT-INTERNET4, US
99.162.185.169|/Cannabiscoin:0.13.2/|70019|7018|99.160.0.0/13|US|arin|2007-08-29|ATT-INTERNET4, US
seed.cannabiscoin.net|/Cannabiscoin:0.13.1/|70019||||||
seed2.cannabiscoin.net|/Satoshi:0.8.7.1/|70015||||||
