# https://chainz.cryptoid.info/ and whois results
# CannabisCoin
IP Address|Subver|Version|ASN|BGP Prefix|CC|Registry|Allocated|AS Name
104.138.178.238|/Cannabiscoin:0.13.1/|70019|11426|104.138.128.0/17|US|arin|2014-06-12|TWC-11426-CAROLINAS, US
108.247.106.138|/Cannabiscoin:0.13.1/|70019|7018|108.192.0.0/10|US|arin|2011-01-12|ATT-INTERNET4, US
108.50.170.187|/Cannabiscoin:0.13.1/|70019|701|108.50.128.0/17|US|arin|2009-06-05|UUNET, US
109.22.15.31|/Cannabiscoin:0.13.1/|70019|15557|109.0.0.0/11|FR|ripencc|2009-08-13|LDCOMNET, FR
116.202.251.195|/Cannabiscoin:0.8.9/|70017|24940|116.202.0.0/16|DE|ripencc|2011-01-17|HETZNER-AS, DE
136.24.44.100|/Cannabiscoin:0.13.1/|70019|19165|136.24.0.0/16|US|arin|2016-10-31|WEBPASS, US
137.135.18.91|/Cannabiscoin:0.13.1/|70019|8075|137.135.0.0/16|US|arin|2011-06-22|MICROSOFT-CORP-MSN-AS-BLOCK, US
138.68.254.94|/Cannabiscoin:0.13.0/|70018|14061|138.68.240.0/20|US|arin|2016-01-26|DIGITALOCEAN-ASN, US
14.11.162.225|/Cannabiscoin:0.13.1/|70019|2516|14.10.0.0/15|JP|apnic|2010-08-17|KDDI KDDI CORPORATION, JP
144.91.77.184|/Cannabiscoin:0.13.1/|70019|51167|144.91.76.0/23|DE|ripencc|1990-11-20|CONTABO, DE
155.138.151.42|/Cannabiscoin:0.13.1/|70019|20473|155.138.128.0/19|US|arin|2018-12-05|AS-CHOOPA, US
167.86.116.187|/Cannabiscoin:0.13.1/|70019|51167|167.86.116.0/23|DE|ripencc|1993-05-14|CONTABO, DE
172.112.153.22|/Cannabiscoin:0.13.1/|70019|20001|172.112.0.0/13|US|arin|2015-06-19|TWC-20001-PACWEST, US
176.27.155.70|/Satoshi:0.8.7/|70014|5607|176.24.0.0/14|GB|ripencc|2011-05-19|BSKYB-BROADBAND-AS, GB
176.31.255.61|/Cannabiscoin:0.13.1/|70019|16276|176.31.0.0/16|FR|ripencc|2011-05-20|OVH, FR
176.76.243.2|/Cannabiscoin:0.13.1/|70019|3212|176.76.0.0/16|SI|ripencc|2011-06-15|TELEMACH Broadband Access & Carrier Services, SI
178.63.9.83|/Cannabiscoin:0.13.1/|70019|24940|178.63.0.0/16|DE|ripencc|2010-03-02|HETZNER-AS, DE
183.83.46.247|/Cannabiscoin:0.13.1/|70019|18209|183.83.44.0/22|IN|apnic|2009-11-10|BEAMTELE-AS-AP Atria Convergence Technologies pvt ltd, IN
184.144.68.64|/Cannabiscoin:0.13.1/|70019|577|184.144.0.0/16|CA|arin|2010-04-12|BACOM, CA
186.90.165.48|/Cannabiscoin:0.13.1/|70019|8048|186.90.160.0/19|VE|lacnic|2009-11-18|CANTV Servicios, Venezuela, VE
188.19.34.34|/Cannabiscoin:0.13.1/|70019|12389|188.19.32.0/20|RU|ripencc|2009-02-03|ROSTELECOM-AS, RU
190.239.229.179|/Cannabiscoin:0.13.1/|70019|6147|190.239.192.0/18|PE|lacnic|2011-01-18|Telefonica del Peru S.A.A., PE
190.96.1.19|/Cannabiscoin:0.13.1/|70019|18822|190.96.1.0/24|CL|lacnic|2007-07-19|Manquehuenet, CL
194.160.80.214|/Cannabiscoin:0.13.1/|70019|2607|194.160.0.0/16|SK|ripencc|1995-05-03|SANET Slovak Academic Network, SK
203.45.35.172|/Cannabiscoin:0.8.9/|70017|1221|203.40.0.0/13|AU|apnic|1994-09-02|ASN-TELSTRA Telstra Corporation Ltd, AU
212.34.248.234|/Cannabiscoin:0.13.1/|70019|44395|212.34.224.0/19|AM|ripencc|2009-04-23|ORG-UL31-RIPE, AM
213.87.121.188|/Cannabiscoin:0.13.1/|70019|28884|213.87.120.0/23|RU|ripencc|2000-04-10|MR-SIB-MTSAS MR Sibir, RU
221.122.37.71|/Cannabiscoin:0.13.1/|70019|23724|221.122.32.0/20|CN|apnic|2003-07-07|CHINANET-IDC-BJ-AP IDC, China Telecommunications Corporation, CN
222.252.6.58|/Cannabiscoin:0.13.1/|70019|45899|222.252.0.0/20|VN|apnic|2004-05-18|VNPT-AS-VN VNPT Corp, VN
27.106.60.32|/Cannabiscoin:0.13.1/|70019|45194|27.106.56.0/21|IN|apnic|2010-06-07|SIPL-AS Syscon Infoway Pvt. Ltd., IN
31.25.241.224|/Cannabiscoin:0.13.1/|70019|39741|31.25.241.0/24|RU|ripencc|2011-03-10|DCE-AS, RU
39.106.249.79|/Satoshi:0.8.7.1/|70015|37963|39.106.0.0/15|CN|apnic|2011-04-05|CNNIC-ALIBABA-CN-NET-AP Hangzhou Alibaba Advertising Co.,Ltd., CN
47.156.121.106|/Cannabiscoin:0.13.1/|70019|5650|47.156.0.0/16|US|arin|2015-08-28|FRONTIER-FRTR, US
47.254.82.177|/Cannabiscoin:0.13.1/|70019|45102|47.254.80.0/21|US|arin|2016-04-15|CNNIC-ALIBABA-US-NET-AP Alibaba (US) Technology Co., Ltd., CN
47.35.165.35|/Cannabiscoin:0.13.1/|70019|20115|47.35.128.0/18|US|arin|2014-12-23|CHARTER-20115, US
49.228.50.220|/Cannabiscoin:0.13.1/|70019|133481|49.228.48.0/22|TH|apnic|2010-11-25|AIS-FIBRE-AS-AP AIS Fibre, TH
5.188.104.245|/Cannabiscoin:0.13.1/|70019|199860|5.188.104.0/23|RU|ripencc|2012-08-09|SDN-AS, RU
5.188.187.130|/Cannabiscoin:0.13.1/|70019|50340|5.188.184.0/22|RU|ripencc|2012-08-09|SELECTEL-MSK, RU
51.254.44.206|/Cannabiscoin:0.13.1/|70019|16276|51.254.0.0/15|FR|ripencc|1993-09-01|OVH, FR
51.38.57.53|/Cannabiscoin:0.13.1/|70019|16276|51.38.0.0/16|FR|ripencc|1993-09-01|OVH, FR
52.39.232.122|/Cannabiscoin:0.13.1/|70019|16509|52.36.0.0/14|US|arin|2015-09-02|AMAZON-02, US
60.52.121.29|/Cannabiscoin:0.13.1/|70019|4788|60.52.64.0/18|MY|apnic|2004-06-07|TMNET-AS-AP TM Net, Internet Service Provider, MY
64.228.243.147|/Cannabiscoin:0.13.1/|70019|577|64.228.0.0/16|CA|arin|2000-02-15|BACOM, CA
66.151.242.154|/Cannabiscoin:0.13.1/|70019|63018|66.151.242.0/24|US|arin|2001-07-13|DEDICATED, US
67.186.214.210|/Cannabiscoin:0.13.1/|70019|7922|67.160.0.0/11|US|arin|2002-12-16|COMCAST-7922, US
67.247.20.96|/Cannabiscoin:0.13.1/|70019|12271|67.247.0.0/18|US|arin|2008-02-27|TWC-12271-NYC, US
68.47.241.193|/Cannabiscoin:0.13.1/|70019|7922|68.32.0.0/11|US|arin|2001-11-29|COMCAST-7922, US
69.250.88.184|/Cannabiscoin:0.13.1/|70019|7922|69.240.0.0/12|US|arin|2004-02-11|COMCAST-7922, US
70.120.101.31|/Cannabiscoin:0.13.1/|70019|11427|70.120.0.0/17|US|arin|2004-09-17|TWC-11427-TEXAS, US
71.94.159.239|/Cannabiscoin:0.13.1/|70019|20115|71.94.128.0/19|US|arin|2005-05-19|CHARTER-20115, US
73.131.220.28|/Cannabiscoin:0.13.1/|70019|7922|73.0.0.0/8|US|arin|2005-04-19|COMCAST-7922, US
76.110.243.253|/Cannabiscoin:0.13.1/|70019|7922|76.96.0.0/11|US|arin|2007-01-02|COMCAST-7922, US
77.189.96.236|/Cannabiscoin:0.13.1/|70019|6805|77.176.0.0/12|DE|ripencc|2006-11-17|TDDE-ASN1, DE
78.27.116.203|/Cannabiscoin:0.13.1/|70019|16086|78.27.64.0/18|FI|ripencc|2007-09-07|DNA, FI
78.29.32.227|/Cannabiscoin:0.13.1/|70019|8369|78.29.32.0/19|RU|ripencc|2007-09-20|INTERSVYAZ-AS 38-B, Komsomolsky prospekt, RU
78.68.47.44|/Cannabiscoin:0.13.1/|70019|3301|78.64.0.0/12|SE|ripencc|2007-03-09|TELIANET-SWEDEN Telia Company, SE
80.65.23.139|/Cannabiscoin:0.13.1/|70019|31257|80.65.16.0/21|RU|ripencc|2004-03-18|ORIONNET-NET, RU
83.221.211.116|/Cannabiscoin:0.13.0/|70018|21479|83.221.192.0/19|RU|ripencc|2004-04-15|ROSTOV-TELEGRAF-AS, RU
84.210.72.200|/Cannabiscoin:0.13.1/|70019|41164|84.210.0.0/17|NO|ripencc|2005-07-07|GET-NO GET Norway, NO
85.15.179.171|/Cannabiscoin:0.13.1/|70019|12389|85.15.128.0/18|RU|ripencc|2005-04-26|ROSTELECOM-AS, RU
85.19.25.38|/Cannabiscoin:0.13.1/|70019|3292|85.19.0.0/16|NO|ripencc|2005-03-16|TDC TDC A/S, DK
85.214.29.227|/Cannabiscoin:0.13.1/|70019|6724|85.214.0.0/15|DE|ripencc|2005-02-24|STRATO STRATO AG, DE
85.29.87.172|/Cannabiscoin:0.13.1/|70019|13170|85.29.64.0/18|FI|ripencc|2005-05-12|KPO-AS, FI
90.145.218.243|/Cannabiscoin:0.13.1/|70019|29396|90.145.0.0/16|NL|ripencc|2006-11-17|EUROFIBER-UNET EUROFIBER / UNET Network, NL
91.122.189.76|/Cannabiscoin:0.13.0/|70018|12389|91.122.128.0/18|RU|ripencc|2006-09-22|ROSTELECOM-AS, RU
91.206.16.214|/Cannabiscoin:0.13.1/|70019|13259|91.206.16.0/23|RU|ripencc|2008-06-09|DELTA-TELESYSTEMS-AS, RU
92.108.146.249|/Cannabiscoin:0.13.1/|70019|6830|92.108.0.0/15|NL|ripencc|2007-10-23|LIBERTYGLOBAL Liberty Global (formerly UPC Broadband Holding, aka AORTA), AT
92.255.129.96|/Cannabiscoin:0.13.1/|70019|12768|92.255.129.0/24|RU|ripencc|2007-12-28|ER-TELECOM-AS, RU
95.111.247.164|/Cannabiscoin:0.13.1/|70019|51167|95.111.246.0/23|DE|ripencc|2008-12-30|CONTABO, DE
95.79.35.133|/Cannabiscoin:0.13.1/|70019|42682|95.79.0.0/16|RU|ripencc|2008-12-10|ERTH-NNOV-AS, RU
98.232.161.4|/Cannabiscoin:0.8.9/|70017|7922|98.192.0.0/10|US|arin|2007-04-20|COMCAST-7922, US
seed.cannabiscoin.net|/Cannabiscoin:0.13.1/|70019||||||
seed2.cannabiscoin.net|/Satoshi:0.8.7.1/|70015||||||
