# https://chainz.cryptoid.info/ and whois results
# CannabisCoin
IP Address|Subver|Version|ASN|BGP Prefix|CC|Registry|Allocated|AS Name
103.96.141.121|/Cannabiscoin:0.13.1/|70019|136805|103.96.141.0/24|AU|apnic|2017-07-07|NGVPL-AS-AP Next Generation Voice PTY LTD, AU
108.50.170.187|/Cannabiscoin:0.13.1/|70019|701|108.50.128.0/17|US|arin|2009-06-05|UUNET, US
116.202.251.195|/Cannabiscoin:0.8.9/|70017|24940|116.202.0.0/16|DE|ripencc|2011-01-17|HETZNER-AS, DE
124.157.91.222|/Cannabiscoin:0.13.1/|70019|24324|124.157.64.0/19|NZ|apnic|2006-04-04|KORDIA-TRANSIT-AS-AP Kordia Limited, NZ
129.107.121.105|/Cannabiscoin:0.13.1/|70019|18515|129.107.0.0/16|US|arin|1987-11-06|UTARLINGTON, US
136.24.44.100|/Cannabiscoin:0.13.1/|70019|19165|136.24.0.0/16|US|arin|2016-10-31|WEBPASS, US
137.135.18.91|/Cannabiscoin:0.13.1/|70019|8075|137.135.0.0/16|US|arin|2011-06-22|MICROSOFT-CORP-MSN-AS-BLOCK, US
138.68.243.35|/Cannabiscoin:0.13.1/|70019|14061|138.68.240.0/20|US|arin|2016-01-26|DIGITALOCEAN-ASN, US
144.91.77.184|/Cannabiscoin:0.13.1/|70019|51167|144.91.76.0/23|DE|ripencc|1990-11-20|CONTABO, DE
155.138.151.42|/Cannabiscoin:0.13.1/|70019|20473|155.138.128.0/19|US|arin|2018-12-05|AS-CHOOPA, US
167.86.116.187|/Cannabiscoin:0.13.1/|70019|51167|167.86.116.0/23|DE|ripencc|1993-05-14|CONTABO, DE
171.252.182.150|/Cannabiscoin:0.13.1/|70019|7552|171.252.180.0/22|VN|apnic|2011-03-04|VIETEL-AS-AP Viettel Group, VN
173.245.203.134|/Cannabiscoin:0.13.1/|70019|12989|173.245.203.0/24|US|arin|2010-05-21|HWNG, NL
176.27.172.42|/Satoshi:0.8.7/|70014|5607|176.24.0.0/14|GB|ripencc|2011-05-19|BSKYB-BROADBAND-AS, GB
178.218.98.13|/Cannabiscoin:0.13.1/|70019|49350|178.218.96.0/20|RU|ripencc|2010-04-07|TINET-AS, RU
178.218.98.67|/Cannabiscoin:0.13.1/|70019|49350|178.218.96.0/20|RU|ripencc|2010-04-07|TINET-AS, RU
178.63.9.83|/Cannabiscoin:0.13.1/|70019|24940|178.63.0.0/16|DE|ripencc|2010-03-02|HETZNER-AS, DE
178.79.84.197|/Cannabiscoin:0.13.1/|70019|3212|178.79.64.0/18|SI|ripencc|2010-05-07|TELEMACH Broadband Access & Carrier Services, SI
181.65.77.157|/Cannabiscoin:0.13.1/|70019|6147|181.65.64.0/19|PE|lacnic|2011-08-31|Telefonica del Peru S.A.A., PE
184.181.123.82|/Cannabiscoin:0.13.1/|70019|22773|184.181.96.0/19|US|arin|2010-05-14|ASN-CXA-ALL-CCI-22773-RDC, US
184.22.206.197|/Cannabiscoin:0.13.1/|70019|133481|184.22.204.0/22|TH|apnic|2001-11-01|AIS-FIBRE-AS-AP AIS Fibre, TH
185.181.8.101|/Cannabiscoin:0.13.1/|70019|60781|185.181.8.0/24|NL|ripencc|2016-12-07|LEASEWEB-NL-AMS-01 Netherlands, NL
185.218.110.246|/Cannabiscoin:0.13.0/|70018|205439|185.218.108.0/22|RU|ripencc|2017-08-22|IPPARK-AS, RU
185.47.204.98|/Cannabiscoin:0.13.1/|70019|50340|185.47.204.0/22|RU|ripencc|2014-02-14|SELECTEL-MSK, RU
186.4.201.167|/Cannabiscoin:0.13.1/|70019|27947|186.4.192.0/19|EC|lacnic|2010-04-27|Telconet S.A, EC
188.254.215.199|/Cannabiscoin:0.13.0/|70018|43205|188.254.128.0/17|BG|ripencc|2011-02-18|BULSATCOM-BG-AS Sofia, BG
190.204.164.17|/Cannabiscoin:0.13.1/|70019|8048|190.204.160.0/19|VE|lacnic|2007-06-13|CANTV Servicios, Venezuela, VE
190.96.1.19|/Cannabiscoin:0.13.1/|70019|18822|190.96.1.0/24|CL|lacnic|2007-07-19|Manquehuenet, CL
194.152.19.35|/Cannabiscoin:0.13.1/|70019|3212|194.152.0.0/19|SI|ripencc|1996-05-17|TELEMACH Broadband Access & Carrier Services, SI
194.160.80.214|/Cannabiscoin:0.13.1/|70019|2607|194.160.0.0/16|SK|ripencc|1995-05-03|SANET Slovak Academic Network, SK
201.208.212.110|/Cannabiscoin:0.13.1/|70019|8048|201.208.192.0/19|VE|lacnic|2005-08-09|CANTV Servicios, Venezuela, VE
216.60.185.233|/Cannabiscoin:0.13.1/|70019|7018|216.60.0.0/14|US|arin|1998-08-27|ATT-INTERNET4, US
217.240.214.110|/Cannabiscoin:0.13.1/|70019|3320|217.224.0.0/11|DE|ripencc|2001-04-04|DTAG Internet service provider operations, DE
217.241.245.196|/Cannabiscoin:0.13.1/|70019|3320|217.224.0.0/11|DE|ripencc|2001-04-04|DTAG Internet service provider operations, DE
217.92.139.139|/Satoshi:0.8.8/|70016|3320|217.80.0.0/12|DE|ripencc|2000-10-26|DTAG Internet service provider operations, DE
221.122.37.71|/Cannabiscoin:0.13.1/|70019|23724|221.122.32.0/20|CN|apnic|2003-07-07|CHINANET-IDC-BJ-AP IDC, China Telecommunications Corporation, CN
222.252.3.21|/Cannabiscoin:0.13.1/|70019|45899|222.252.0.0/20|VN|apnic|2004-05-18|VNPT-AS-VN VNPT Corp, VN
24.116.47.125|/Cannabiscoin:0.13.1/|70019|11492|24.116.47.0/24|US|arin|1996-09-25|CABLEONE, US
24.234.73.57|/Cannabiscoin:0.13.1/|70019|22773|24.234.0.0/17|US|arin|1997-07-22|ASN-CXA-ALL-CCI-22773-RDC, US
24.238.158.8|/Satoshi:0.8.7/|70014|11427|24.238.128.0/17|US|arin|2003-02-28|TWC-11427-TEXAS, US
31.25.241.224|/Cannabiscoin:0.13.1/|70019|39741|31.25.241.0/24|RU|ripencc|2011-03-10|DCE-AS, RU
37.120.138.71|/Cannabiscoin:0.13.1/|70019|9009|37.120.138.0/24|RO|ripencc|2012-02-13|M247, GB
37.144.47.126|/Satoshi:0.8.7/|70014|8402|37.144.40.0/21|RU|ripencc|2012-03-02|CORBINA-AS OJSC _Vimpelcom_, RU
39.106.249.79|/Satoshi:0.8.7.1/|70015|37963|39.106.0.0/15|CN|apnic|2011-04-05|CNNIC-ALIBABA-CN-NET-AP Hangzhou Alibaba Advertising Co.,Ltd., CN
47.155.229.117|/Cannabiscoin:0.13.1/|70019|5650|47.152.0.0/14|US|arin|2015-08-28|FRONTIER-FRTR, US
47.157.217.183|/Cannabiscoin:0.13.1/|70019|5650|47.157.0.0/16|US|arin|2015-08-28|FRONTIER-FRTR, US
47.35.165.35|/Cannabiscoin:0.13.1/|70019|20115|47.35.128.0/18|US|arin|2014-12-23|CHARTER-20115, US
47.56.214.134|/Cannabiscoin:0.13.1/|70019|45102|47.56.0.0/16|US|arin|2016-03-17|CNNIC-ALIBABA-US-NET-AP Alibaba (US) Technology Co., Ltd., CN
5.188.104.245|/Cannabiscoin:0.13.1/|70019|199860|5.188.104.0/23|RU|ripencc|2012-08-09|SDN-AS, RU
51.174.185.253|/Cannabiscoin:0.13.1/|70019|29695|51.174.0.0/15|NO|ripencc|1993-09-01|ALTIBOX_AS Norway, NO
51.254.44.206|/Cannabiscoin:0.13.1/|70019|16276|51.254.0.0/15|FR|ripencc|1993-09-01|OVH, FR
51.38.57.53|/Cannabiscoin:0.13.1/|70019|16276|51.38.0.0/16|FR|ripencc|1993-09-01|OVH, FR
52.144.99.74|/Cannabiscoin:0.13.1/|70019|26077|52.144.99.0/24|US|arin|2016-09-07|NEXTLINK-TEXAS, US
52.39.232.122|/Cannabiscoin:0.13.1/|70019|16509|52.36.0.0/14|US|arin|2015-09-02|AMAZON-02, US
58.96.84.1|/Cannabiscoin:0.13.1/|70019|10143|58.96.64.0/19|AU|apnic|2005-04-11|EXETEL-AS-AP Exetel Pty Ltd, AU
59.138.170.147|/Satoshi:0.8.7/|70014|2516|59.138.0.0/16|JP|apnic|2004-10-19|KDDI KDDI CORPORATION, JP
64.231.201.191|/Cannabiscoin:0.13.1/|70019|577|64.231.0.0/16|CA|arin|2000-02-15|BACOM, CA
66.151.242.154|/Cannabiscoin:0.13.1/|70019|63018|66.151.242.0/24|US|arin|2001-07-13|DEDICATED, US
67.247.20.96|/Cannabiscoin:0.13.1/|70019|12271|67.247.0.0/18|US|arin|2008-02-27|TWC-12271-NYC, US
68.47.241.193|/Cannabiscoin:0.13.1/|70019|7922|68.32.0.0/11|US|arin|2001-11-29|COMCAST-7922, US
69.250.88.184|/Cannabiscoin:0.13.1/|70019|7922|69.240.0.0/12|US|arin|2004-02-11|COMCAST-7922, US
70.120.101.31|/Cannabiscoin:0.13.1/|70019|11427|70.120.0.0/17|US|arin|2004-09-17|TWC-11427-TEXAS, US
70.123.252.204|/Cannabiscoin:0.13.1/|70019|11427|70.122.0.0/15|US|arin|2004-09-17|TWC-11427-TEXAS, US
71.94.159.239|/Cannabiscoin:0.13.1/|70019|20115|71.94.128.0/19|US|arin|2005-05-19|CHARTER-20115, US
72.191.35.176|/Cannabiscoin:0.13.1/|70019|11427|72.190.0.0/15|US|arin|2005-11-21|TWC-11427-TEXAS, US
73.35.0.47|/Cannabiscoin:0.13.0/|70018|7922|73.0.0.0/8|US|arin|2005-04-19|COMCAST-7922, US
77.185.77.155|/Cannabiscoin:0.13.1/|70019|6805|77.176.0.0/12|DE|ripencc|2006-11-17|TDDE-ASN1, DE
77.189.19.87|/Cannabiscoin:0.13.1/|70019|6805|77.176.0.0/12|DE|ripencc|2006-11-17|TDDE-ASN1, DE
78.29.32.227|/Cannabiscoin:0.13.1/|70019|8369|78.29.32.0/19|RU|ripencc|2007-09-20|INTERSVYAZ-AS 38-B, Komsomolsky prospekt, RU
78.37.16.9|/Cannabiscoin:0.13.1/|70019|12389|78.37.16.0/22|RU|ripencc|2007-03-16|ROSTELECOM-AS, RU
78.37.19.128|/Cannabiscoin:0.13.1/|70019|12389|78.37.16.0/22|RU|ripencc|2007-03-16|ROSTELECOM-AS, RU
78.68.47.44|/Cannabiscoin:0.13.1/|70019|3301|78.64.0.0/12|SE|ripencc|2007-03-09|TELIANET-SWEDEN Telia Company, SE
79.252.125.11|/Cannabiscoin:0.13.1/|70019|3320|79.192.0.0/10|DE|ripencc|2007-06-06|DTAG Internet service provider operations, DE
80.65.23.139|/Cannabiscoin:0.13.1/|70019|31257|80.65.16.0/21|RU|ripencc|2004-03-18|ORIONNET-NET, RU
81.183.129.90|/Cannabiscoin:0.13.1/|70019|5483|81.182.0.0/15|HU|ripencc|2003-02-05|MAGYAR-TELEKOM-MAIN-AS Magyar Telekom Nyrt., HU
83.221.211.116|/Cannabiscoin:0.13.0/|70018|21479|83.221.192.0/19|RU|ripencc|2004-04-15|ROSTOV-TELEGRAF-AS, RU
84.121.174.90|/Cannabiscoin:0.13.1/|70019|12357|84.121.160.0/20|ES|ripencc|2004-04-15|COMUNITEL SPAIN, ES
84.236.171.42|/Satoshi:0.8.7/|70014|29119|84.236.160.0/20|ES|ripencc|2009-04-09|SERVIHOSTING-AS AireNetworks, ES
85.15.179.171|/Cannabiscoin:0.13.1/|70019|12389|85.15.128.0/18|RU|ripencc|2005-04-26|ROSTELECOM-AS, RU
85.19.25.38|/Cannabiscoin:0.13.1/|70019|3292|85.19.0.0/16|NO|ripencc|2005-03-16|TDC TDC A/S, DK
85.29.87.172|/Cannabiscoin:0.13.1/|70019|13170|85.29.64.0/18|FI|ripencc|2005-05-12|KPO-AS, FI
94.130.51.55|/Satoshi:0.8.7.1/|70015|24940|94.130.0.0/16|DE|ripencc|2008-06-23|HETZNER-AS, DE
95.111.247.164|/Cannabiscoin:0.13.1/|70019|51167|95.111.246.0/23|DE|ripencc|2008-12-30|CONTABO, DE
95.216.46.126|/Cannabiscoin:0.13.1/|70019|24940|95.216.0.0/16|DE|ripencc|2009-02-24|HETZNER-AS, DE
95.79.35.133|/Cannabiscoin:0.13.1/|70019|42682|95.79.0.0/16|RU|ripencc|2008-12-10|ERTH-NNOV-AS, RU
seed.cannabiscoin.net|/Cannabiscoin:0.13.1/|70019||||||
seed2.cannabiscoin.net|/Cannabiscoin:0.13.1/|70019||||||
