# https://chainz.cryptoid.info/ and whois results
# CannabisCoin
IP Address|Subver|Version|ASN|BGP Prefix|CC|Registry|Allocated|AS Name
109.150.138.51|/Cannabiscoin:0.13.1/|70019|2856|109.144.0.0/12|GB|ripencc|2009-08-06|BT-UK-AS BTnet UK Regional network, GB
116.202.251.195|/Cannabiscoin:0.8.9/|70017|24940|116.202.0.0/16|DE|ripencc|2011-01-17|HETZNER-AS, DE
118.71.224.238|/Cannabiscoin:0.13.1/|70019|18403|118.71.224.0/20|VN|apnic|2007-08-08|FPT-AS-AP The Corporation for Financing & Promoting Technology, VN
124.157.91.222|/Cannabiscoin:0.13.1/|70019|24324|124.157.64.0/19|NZ|apnic|2006-04-04|KORDIA-TRANSIT-AS-AP Kordia Limited, NZ
136.32.141.74|/Cannabiscoin:0.13.1/|70019|16591|136.32.128.0/20|US|arin|2015-10-06|GOOGLE-FIBER, US
137.135.18.91|/Cannabiscoin:0.13.1/|70019|8075|137.135.0.0/16|US|arin|2011-06-22|MICROSOFT-CORP-MSN-AS-BLOCK, US
138.68.254.94|/Cannabiscoin:0.13.0/|70018|14061|138.68.240.0/20|US|arin|2016-01-26|DIGITALOCEAN-ASN, US
144.91.77.184|/Cannabiscoin:0.13.1/|70019|51167|144.91.76.0/23|DE|ripencc|1990-11-20|CONTABO, DE
155.138.151.42|/Cannabiscoin:0.13.1/|70019|20473|155.138.128.0/19|US|arin|2018-12-05|AS-CHOOPA, US
159.224.130.140|/Cannabiscoin:0.13.1/|70019|13188|159.224.130.0/24|UA|ripencc|2011-09-20|TRIOLAN, UA
167.86.116.187|/Cannabiscoin:0.13.1/|70019|51167|167.86.116.0/23|DE|ripencc|1993-05-14|CONTABO, DE
172.112.153.22|/Cannabiscoin:0.13.1/|70019|20001|172.112.0.0/13|US|arin|2015-06-19|TWC-20001-PACWEST, US
173.63.177.136|/Cannabiscoin:0.13.1/|70019|701|173.63.0.0/16|US|arin|2008-10-09|UUNET, US
174.109.193.250|/Cannabiscoin:0.13.1/|70019|11426|174.108.0.0/14|US|arin|2009-02-26|TWC-11426-CAROLINAS, US
176.31.255.61|/Cannabiscoin:0.13.1/|70019|16276|176.31.0.0/16|FR|ripencc|2011-05-20|OVH, FR
176.9.9.210|/Cannabiscoin:0.13.1/|70019|24940|176.9.0.0/16|DE|ripencc|2011-05-17|HETZNER-AS, DE
178.121.186.60|/Cannabiscoin:0.13.1/|70019|6697|178.120.0.0/15|BY|ripencc|2009-12-10|BELPAK-AS BELPAK, BY
178.255.168.79|/Cannabiscoin:0.13.1/|70019|44489|178.255.168.0/21|CZ|ripencc|2010-07-13|STARNET, CZ
178.63.9.83|/Cannabiscoin:0.13.1/|70019|24940|178.63.0.0/16|DE|ripencc|2010-03-02|HETZNER-AS, DE
178.79.78.142|/Cannabiscoin:0.13.1/|70019|3212|178.79.64.0/18|SI|ripencc|2010-05-07|TELEMACH Broadband Access & Carrier Services, SI
184.6.10.118|/Cannabiscoin:0.13.1/|70019|209|184.6.0.0/19|US|arin|2009-06-23|CENTURYLINK-US-LEGACY-QWEST, US
185.219.6.253|/Cannabiscoin:0.13.1/|70019|44854|185.219.6.0/24|NL|ripencc|2020-11-24|ERITAP-AS, NL
186.94.70.5|/Cannabiscoin:0.13.1/|70019|8048|186.94.64.0/19|VE|lacnic|2009-11-18|CANTV Servicios, Venezuela, VE
190.96.1.19|/Cannabiscoin:0.13.1/|70019|18822|190.96.1.0/24|CL|lacnic|2007-07-19|Manquehuenet, CL
192.222.229.98|/Cannabiscoin:0.13.1/|70019|1403|192.222.224.0/19|CA|arin|2012-12-20|EBOX, CA
194.160.80.214|/Cannabiscoin:0.13.1/|70019|2607|194.160.0.0/16|SK|ripencc|1995-05-03|SANET Slovak Academic Network, SK
194.8.47.232|/Cannabiscoin:0.13.1/|70019|35723|194.8.47.0/24|RU|ripencc|2005-08-26|ASN-TTCL, RU
195.201.160.242|/Cannabiscoin:0.13.1/|70019|24940|195.201.0.0/16|DE|ripencc|1997-09-22|HETZNER-AS, DE
2.39.202.86|/Cannabiscoin:0.13.1/|70019|30722|2.39.128.0/17|IT|ripencc|2010-04-29|VODAFONE-IT-ASN, IT
2.60.120.162|/Cannabiscoin:0.13.1/|70019|12389|2.60.0.0/16|RU|ripencc|2010-10-08|ROSTELECOM-AS, RU
201.210.157.78|/Cannabiscoin:0.13.1/|70019|8048|201.210.128.0/19|VE|lacnic|2005-08-09|CANTV Servicios, Venezuela, VE
201.210.43.161|/Cannabiscoin:0.13.1/|70019|8048|201.210.32.0/19|VE|lacnic|2005-08-09|CANTV Servicios, Venezuela, VE
201.231.105.80|/Cannabiscoin:0.13.1/|70019|10318|201.231.96.0/19|AR|lacnic|2005-10-26|Telecom Argentina S.A., AR
217.83.28.254|/Cannabiscoin:0.13.1/|70019|3320|217.80.0.0/12|DE|ripencc|2000-10-26|DTAG Internet service provider operations, DE
221.122.37.71|/Cannabiscoin:0.13.1/|70019|23724|221.122.32.0/20|CN|apnic|2003-07-07|CHINANET-IDC-BJ-AP IDC, China Telecommunications Corporation, CN
23.242.199.50|/Cannabiscoin:0.13.1/|70019|20001|23.240.0.0/14|US|arin|2013-09-20|TWC-20001-PACWEST, US
24.189.41.172|/Cannabiscoin:0.13.1/|70019|6128|24.188.0.0/14|US|arin|1999-07-29|CABLE-NET-1, US
24.91.109.254|/Cannabiscoin:0.13.1/|70019|7922|24.91.0.0/16|US|arin|2000-04-26|COMCAST-7922, US
27.58.106.93|/Cannabiscoin:0.13.1/|70019|24560|27.58.96.0/19|IN|apnic|2010-03-12|AIRTELBROADBAND-AS-AP Bharti Airtel Ltd., Telemedia Services, IN
27.58.123.239|/Cannabiscoin:0.13.1/|70019|24560|27.58.96.0/19|IN|apnic|2010-03-12|AIRTELBROADBAND-AS-AP Bharti Airtel Ltd., Telemedia Services, IN
31.25.241.224|/Cannabiscoin:0.13.1/|70019|39741|31.25.241.0/24|RU|ripencc|2011-03-10|DCE-AS, RU
39.106.249.79|/Satoshi:0.8.7.1/|70015|37963|39.106.0.0/15|CN|apnic|2011-04-05|CNNIC-ALIBABA-CN-NET-AP Hangzhou Alibaba Advertising Co.,Ltd., CN
47.35.165.35|/Cannabiscoin:0.13.1/|70019|20115|47.35.128.0/18|US|arin|2014-12-23|CHARTER-20115, US
49.228.10.3|/Cannabiscoin:0.13.1/|70019|133481|49.228.8.0/22|TH|apnic|2010-11-25|AIS-FIBRE-AS-AP AIS Fibre, TH
5.188.104.245|/Cannabiscoin:0.13.1/|70019|199860|5.188.104.0/23|RU|ripencc|2012-08-09|SDN-AS, RU
5.189.23.183|/Satoshi:0.8.7/|70014|12668|5.189.0.0/17|RU|ripencc|2012-08-09|MIRALOGIC-AS, RU
51.254.44.206|/Cannabiscoin:0.13.1/|70019|16276|51.254.0.0/15|FR|ripencc|1993-09-01|OVH, FR
51.38.57.53|/Cannabiscoin:0.13.1/|70019|16276|51.38.0.0/16|FR|ripencc|1993-09-01|OVH, FR
51.68.204.201|/Cannabiscoin:0.13.1/|70019|16276|51.68.0.0/16|FR|ripencc|1993-09-01|OVH, FR
52.39.232.122|/Cannabiscoin:0.13.1/|70019|16509|52.36.0.0/14|US|arin|1991-12-19|AMAZON-02, US
66.151.242.154|/Cannabiscoin:0.13.1/|70019|63018|66.151.242.0/24|US|arin|2001-07-13|DEDICATED, US
66.157.214.248|/Cannabiscoin:0.13.1/|70019|7018|66.157.192.0/18|US|arin|2001-07-25|ATT-INTERNET4, US
67.247.20.96|/Cannabiscoin:0.13.1/|70019|12271|67.247.0.0/18|US|arin|2008-02-27|TWC-12271-NYC, US
67.3.41.222|/Cannabiscoin:0.13.1/|70019|209|67.0.0.0/13|US|arin|2001-07-26|CENTURYLINK-US-LEGACY-QWEST, US
68.107.186.131|/Cannabiscoin:0.13.1/|70019|22773|68.107.184.0/21|US|arin|2002-02-04|ASN-CXA-ALL-CCI-22773-RDC, US
68.47.241.193|/Cannabiscoin:0.13.1/|70019|7922|68.32.0.0/11|US|arin|2001-11-29|COMCAST-7922, US
69.110.48.56|/Cannabiscoin:0.13.1/|70019|7018|69.108.0.0/14|US|arin|2003-11-21|ATT-INTERNET4, US
69.168.161.83|/Satoshi:0.8.7/|70014|22995|69.168.160.0/21|CA|arin|2008-06-24|BARR-XPLR-ASN, CA
69.243.12.120|/Cannabiscoin:0.13.1/|70019|7922|69.240.0.0/12|US|arin|2004-02-11|COMCAST-7922, US
69.254.105.77|/Cannabiscoin:0.13.1/|70019|7922|69.240.0.0/12|US|arin|2004-02-11|COMCAST-7922, US
70.120.101.31|/Cannabiscoin:0.13.1/|70019|11427|70.120.0.0/17|US|arin|2004-09-17|TWC-11427-TEXAS, US
71.63.129.184|/Cannabiscoin:0.13.1/|70019|7922|71.56.0.0/13|US|arin|2005-04-29|COMCAST-7922, US
72.71.240.224|/Cannabiscoin:0.13.1/|70019|13672|72.71.192.0/18|US|arin|2005-06-24|FAIRPO-3, US
73.228.46.214|/Cannabiscoin:0.13.1/|70019|7922|73.0.0.0/8|US|arin|2005-04-19|COMCAST-7922, US
77.137.54.162|/Cannabiscoin:0.13.1/|70019|12849|77.137.48.0/20|FR|ripencc|2010-08-31|HOTNET-IL AMS-IX Admin LAN, IL
77.182.15.19|/Cannabiscoin:0.13.1/|70019|6805|77.176.0.0/12|DE|ripencc|2006-11-17|TDDE-ASN1, DE
78.107.233.27|/Cannabiscoin:0.13.1/|70019|8402|78.106.0.0/15|RU|ripencc|2007-06-06|CORBINA-AS OJSC _Vimpelcom_, RU
78.29.32.227|/Cannabiscoin:0.13.1/|70019|8369|78.29.32.0/19|RU|ripencc|2007-09-20|INTERSVYAZ-AS 38-B, Komsomolsky prospekt, RU
80.65.23.139|/Cannabiscoin:0.13.1/|70019|31257|80.65.16.0/21|RU|ripencc|2004-03-18|ORIONNET-KRK, RU
81.23.183.38|/Cannabiscoin:0.13.1/|70019|8416|81.23.183.0/24|RU|ripencc|2006-02-16|INFOLINE-AS, RU
81.51.52.98|/Cannabiscoin:0.13.1/|70019|3215|81.51.0.0/17|FR|ripencc|2002-03-25|France Telecom - Orange, FR
83.221.211.116|/Cannabiscoin:0.13.0/|70018|21479|83.221.192.0/19|RU|ripencc|2004-04-15|ROSTOV-TELEGRAF-AS, RU
84.148.252.145|/Cannabiscoin:0.13.1/|70019|3320|84.128.0.0/10|DE|ripencc|2004-03-10|DTAG Internet service provider operations, DE
84.2.139.195|/Cannabiscoin:0.13.1/|70019|5483|84.0.0.0/14|HU|ripencc|2004-09-17|MAGYAR-TELEKOM-MAIN-AS Magyar Telekom Nyrt., HU
85.15.179.171|/Cannabiscoin:0.13.1/|70019|12389|85.15.128.0/18|RU|ripencc|2005-04-26|ROSTELECOM-AS, RU
85.19.25.38|/Cannabiscoin:0.13.1/|70019|25400|85.19.0.0/16|NO|ripencc|2005-03-16|TELIA-NORWAY-AS Telia Norway Core Networks, NO
89.133.215.246|/Cannabiscoin:0.13.1/|70019|6830|89.132.0.0/15|HU|ripencc|2006-01-17|LIBERTYGLOBAL Liberty Global (formerly UPC Broadband Holding, aka AORTA), NL
89.187.164.243|/Cannabiscoin:0.13.1/|70019|60068|89.187.164.0/24|CZ|ripencc|2006-04-28|CDN77 (^_^)/, GB
89.187.175.137|/Cannabiscoin:0.13.1/|70019|60068|89.187.175.0/24|CZ|ripencc|2006-04-28|CDN77 (^_^)/, GB
91.205.168.52|/Cannabiscoin:0.13.1/|70019|25159|91.205.168.0/24|RU|ripencc|2008-09-16|SONICDUO-AS, RU
91.206.16.214|/Cannabiscoin:0.13.1/|70019|13259|91.206.16.0/23|RU|ripencc|2008-06-09|DELTA-TELESYSTEMS-AS, RU
91.90.11.175|/Cannabiscoin:0.13.1/|70019|41631|91.90.11.0/24|UA|ripencc|2006-09-21|SOBORKA-AS Odessa, Ukraine, UA
92.255.134.173|/Cannabiscoin:0.13.1/|70019|12768|92.255.134.0/24|RU|ripencc|2007-12-28|ER-TELECOM-AS, RU
93.241.68.11|/Cannabiscoin:0.13.1/|70019|3320|93.192.0.0/10|DE|ripencc|2008-02-12|DTAG Internet service provider operations, DE
95.10.50.122|/Cannabiscoin:0.13.1/|70019|47331|95.10.48.0/21|TR|ripencc|2008-10-14|TTNET, TR
95.111.247.164|/Cannabiscoin:0.13.1/|70019|51167|95.111.246.0/23|DE|ripencc|2008-12-30|CONTABO, DE
95.79.35.133|/Cannabiscoin:0.13.1/|70019|42682|95.79.0.0/16|RU|ripencc|2008-12-10|ERTH-NNOV-AS, RU
95.91.236.219|/Cannabiscoin:0.13.1/|70019|3209|95.88.0.0/14|DE|ripencc|2008-12-15|VODANET International IP-Backbone of Vodafone, DE
97.118.144.140|/Cannabiscoin:0.13.1/|70019|209|97.118.0.0/16|US|arin|2007-12-19|CENTURYLINK-US-LEGACY-QWEST, US
97.118.3.183|/Cannabiscoin:0.13.1/|70019|209|97.118.0.0/16|US|arin|2007-12-19|CENTURYLINK-US-LEGACY-QWEST, US
99.148.47.138|/Cannabiscoin:0.13.1/|70019|7018|99.148.0.0/15|US|arin|2007-08-29|ATT-INTERNET4, US
seed.cannabiscoin.net|/Cannabiscoin:0.13.1/|70019||||||
seed2.cannabiscoin.net|/Cannabiscoin:0.13.1/|70019||||||
