# https://chainz.cryptoid.info/ and whois results
# CannabisCoin
IP Address|Subver|Version|ASN|BGP Prefix|CC|Registry|Allocated|AS Name
103.96.141.121|/Cannabiscoin:0.13.1/|70019|136805|103.96.141.0/24|AU|apnic|2017-07-07|NGVPL-AS-AP Next Generation Voice PTY LTD, AU
108.50.170.187|/Cannabiscoin:0.13.1/|70019|701|108.50.128.0/17|US|arin|2009-06-05|UUNET, US
116.202.251.195|/Cannabiscoin:0.8.9/|70017|24940|116.202.0.0/16|DE|ripencc|2011-01-17|HETZNER-AS, DE
129.107.121.105|/Cannabiscoin:0.13.1/|70019|18515|129.107.0.0/16|US|arin|1987-11-06|UTARLINGTON, US
136.32.141.74|/Cannabiscoin:0.13.1/|70019|16591|136.32.128.0/20|US|arin|2015-10-06|GOOGLE-FIBER, US
137.135.18.91|/Cannabiscoin:0.13.1/|70019|8075|137.135.0.0/16|US|arin|2011-06-22|MICROSOFT-CORP-MSN-AS-BLOCK, US
138.68.243.35|/Cannabiscoin:0.13.1/|70019|14061|138.68.240.0/20|US|arin|2016-01-26|DIGITALOCEAN-ASN, US
144.91.77.184|/Cannabiscoin:0.13.1/|70019|51167|144.91.76.0/23|DE|ripencc|1990-11-20|CONTABO, DE
155.138.151.42|/Cannabiscoin:0.13.1/|70019|20473|155.138.128.0/19|US|arin|2018-12-05|AS-CHOOPA, US
167.86.116.187|/Cannabiscoin:0.13.1/|70019|51167|167.86.116.0/23|DE|ripencc|1993-05-14|CONTABO, DE
176.113.72.180|/Cannabiscoin:0.13.1/|70019|9009|176.113.72.0/24|RO|ripencc|2018-10-15|M247, GB
176.27.172.42|/Satoshi:0.8.7/|70014|5607|176.24.0.0/14|GB|ripencc|2011-05-19|BSKYB-BROADBAND-AS, GB
176.76.242.59|/Cannabiscoin:0.13.1/|70019|3212|176.76.0.0/16|SI|ripencc|2011-06-15|TELEMACH Broadband Access & Carrier Services, SI
176.76.242.72|/Cannabiscoin:0.13.1/|70019|3212|176.76.0.0/16|SI|ripencc|2011-06-15|TELEMACH Broadband Access & Carrier Services, SI
178.218.100.104|/Cannabiscoin:0.13.1/|70019|49350|178.218.96.0/20|RU|ripencc|2010-04-07|TINET-AS, RU
178.63.9.83|/Cannabiscoin:0.13.1/|70019|24940|178.63.0.0/16|DE|ripencc|2010-03-02|HETZNER-AS, DE
181.65.77.157|/Cannabiscoin:0.13.1/|70019|6147|181.65.64.0/19|PE|lacnic|2011-08-31|Telefonica del Peru S.A.A., PE
184.181.123.82|/Cannabiscoin:0.13.1/|70019|22773|184.181.96.0/19|US|arin|2010-05-14|ASN-CXA-ALL-CCI-22773-RDC, US
184.22.210.142|/Cannabiscoin:0.13.1/|70019|133481|184.22.208.0/22|TH|apnic|2001-11-01|AIS-FIBRE-AS-AP AIS Fibre, TH
185.181.8.101|/Cannabiscoin:0.13.1/|70019|60781|185.181.8.0/24|NL|ripencc|2016-12-07|LEASEWEB-NL-AMS-01 Netherlands, NL
185.218.110.246|/Cannabiscoin:0.13.0/|70018|205439|185.218.108.0/22|RU|ripencc|2017-08-22|IPPARK-AS, RU
186.4.201.167|/Cannabiscoin:0.13.1/|70019|27947|186.4.192.0/19|EC|lacnic|2010-04-27|Telconet S.A, EC
186.89.172.181|/Cannabiscoin:0.13.1/|70019|8048|186.89.160.0/19|VE|lacnic|2009-11-18|CANTV Servicios, Venezuela, VE
186.93.60.25|/Cannabiscoin:0.13.1/|70019|8048|186.93.32.0/19|VE|lacnic|2009-11-18|CANTV Servicios, Venezuela, VE
188.220.196.142|/Cannabiscoin:0.13.1/|70019|5607|188.220.0.0/14|GB|ripencc|2009-05-26|BSKYB-BROADBAND-AS, GB
188.254.215.199|/Cannabiscoin:0.13.0/|70018|43205|188.254.128.0/17|BG|ripencc|2011-02-18|BULSATCOM-BG-AS Sofia, BG
188.6.34.166|/Cannabiscoin:0.13.1/|70019|5483|188.6.0.0/16|HU|ripencc|2011-09-30|MAGYAR-TELEKOM-MAIN-AS Magyar Telekom Nyrt., HU
190.198.33.128|/Cannabiscoin:0.13.1/|70019|8048|190.198.32.0/19|VE|lacnic|2007-06-13|CANTV Servicios, Venezuela, VE
190.204.176.67|/Cannabiscoin:0.13.1/|70019|8048|190.204.160.0/19|VE|lacnic|2007-06-13|CANTV Servicios, Venezuela, VE
190.96.1.19|/Cannabiscoin:0.13.1/|70019|18822|190.96.1.0/24|CL|lacnic|2007-07-19|Manquehuenet, CL
194.152.19.35|/Cannabiscoin:0.13.1/|70019|3212|194.152.0.0/19|SI|ripencc|1996-05-17|TELEMACH Broadband Access & Carrier Services, SI
194.160.80.214|/Cannabiscoin:0.13.1/|70019|2607|194.160.0.0/16|SK|ripencc|1995-05-03|SANET Slovak Academic Network, SK
2.200.57.66|/Cannabiscoin:0.13.1/|70019|3209|2.200.0.0/14|DE|ripencc|2010-11-18|VODANET International IP-Backbone of Vodafone, DE
201.209.138.86|/Cannabiscoin:0.13.1/|70019|8048|201.209.128.0/19|VE|lacnic|2005-08-09|CANTV Servicios, Venezuela, VE
201.210.144.173|/Cannabiscoin:0.13.1/|70019|8048|201.210.128.0/19|VE|lacnic|2005-08-09|CANTV Servicios, Venezuela, VE
201.211.139.182|/Cannabiscoin:0.13.1/|70019|8048|201.211.128.0/19|VE|lacnic|2005-08-09|CANTV Servicios, Venezuela, VE
216.181.227.81|/Cannabiscoin:0.13.1/|70019|6407|216.181.227.0/24|CA|arin|2013-07-29|PRIMUS-AS6407, CA
216.60.185.233|/Cannabiscoin:0.13.1/|70019|7018|216.60.0.0/14|US|arin|1998-08-27|ATT-INTERNET4, US
221.122.37.71|/Cannabiscoin:0.13.1/|70019|23724|221.122.32.0/20|CN|apnic|2003-07-07|CHINANET-IDC-BJ-AP IDC, China Telecommunications Corporation, CN
222.252.3.21|/Cannabiscoin:0.13.1/|70019|45899|222.252.0.0/20|VN|apnic|2004-05-18|VNPT-AS-VN VNPT Corp, VN
24.116.47.125|/Cannabiscoin:0.13.1/|70019|11492|24.116.47.0/24|US|arin|1996-09-25|CABLEONE, US
24.234.73.57|/Cannabiscoin:0.13.1/|70019|22773|24.234.0.0/17|US|arin|1997-07-22|ASN-CXA-ALL-CCI-22773-RDC, US
24.7.88.54|/Cannabiscoin:0.13.1/|70019|7922|24.0.0.0/12|US|arin|2003-10-06|COMCAST-7922, US
24.93.104.14|/Cannabiscoin:0.13.1/|70019|10796|24.93.96.0/19|US|arin|1997-05-02|TWC-10796-MIDWEST, US
31.131.191.130|/Cannabiscoin:0.13.1/|70019|56917|31.131.184.0/21|RU|ripencc|2011-06-09|DALTECH-AS, RU
31.25.241.224|/Cannabiscoin:0.13.1/|70019|39741|31.25.241.0/24|RU|ripencc|2011-03-10|DCE-AS, RU
37.247.94.207|/Cannabiscoin:0.13.1/|70019|21413|37.247.64.0/19|DE|ripencc|2012-04-18|ENVIA-TEL-AS D-09114 Chemnitz, DE
39.106.249.79|/Satoshi:0.8.7.1/|70015|37963|39.106.0.0/15|CN|apnic|2011-04-05|CNNIC-ALIBABA-CN-NET-AP Hangzhou Alibaba Advertising Co.,Ltd., CN
46.123.249.209|/Cannabiscoin:0.13.1/|70019|21283|46.122.0.0/15|SI|ripencc|2010-05-28|A1SI-AS A1 Slovenija, SI
46.123.255.202|/Cannabiscoin:0.13.1/|70019|21283|46.122.0.0/15|SI|ripencc|2010-05-28|A1SI-AS A1 Slovenija, SI
47.155.229.117|/Cannabiscoin:0.13.1/|70019|5650|47.152.0.0/14|US|arin|2015-08-28|FRONTIER-FRTR, US
47.157.217.183|/Cannabiscoin:0.13.1/|70019|5650|47.157.0.0/16|US|arin|2015-08-28|FRONTIER-FRTR, US
47.32.188.115|/Cannabiscoin:0.13.1/|70019|20115|47.32.128.0/18|US|arin|2014-12-23|CHARTER-20115, US
47.35.165.35|/Cannabiscoin:0.13.1/|70019|20115|47.35.128.0/18|US|arin|2014-12-23|CHARTER-20115, US
47.56.214.134|/Cannabiscoin:0.13.1/|70019|45102|47.56.0.0/16|US|arin|2016-03-17|CNNIC-ALIBABA-US-NET-AP Alibaba (US) Technology Co., Ltd., CN
5.188.104.245|/Cannabiscoin:0.13.1/|70019|199860|5.188.104.0/23|RU|ripencc|2012-08-09|SDN-AS, RU
51.174.185.253|/Cannabiscoin:0.13.1/|70019|29695|51.174.0.0/15|NO|ripencc|1993-09-01|ALTIBOX_AS Norway, NO
51.254.44.206|/Cannabiscoin:0.13.1/|70019|16276|51.254.0.0/15|FR|ripencc|1993-09-01|OVH, FR
51.38.57.53|/Cannabiscoin:0.13.1/|70019|16276|51.38.0.0/16|FR|ripencc|1993-09-01|OVH, FR
52.144.99.74|/Cannabiscoin:0.13.1/|70019|26077|52.144.99.0/24|US|arin|2016-09-07|NEXTLINK-TEXAS, US
52.39.232.122|/Cannabiscoin:0.13.1/|70019|16509|52.36.0.0/14|US|arin|2015-09-02|AMAZON-02, US
58.105.135.102|/Cannabiscoin:0.13.1/|70019|4804|58.105.128.0/19|AU|apnic|2005-04-22|MPX-AS Microplex PTY LTD, AU
59.138.170.147|/Satoshi:0.8.7/|70014|2516|59.138.0.0/16|JP|apnic|2004-10-19|KDDI KDDI CORPORATION, JP
64.231.201.105|/Cannabiscoin:0.13.1/|70019|577|64.231.0.0/16|CA|arin|2000-02-15|BACOM, CA
66.151.242.154|/Cannabiscoin:0.13.1/|70019|63018|66.151.242.0/24|US|arin|2001-07-13|DEDICATED, US
67.247.20.96|/Cannabiscoin:0.13.1/|70019|12271|67.247.0.0/18|US|arin|2008-02-27|TWC-12271-NYC, US
68.107.186.101|/Cannabiscoin:0.13.1/|70019|22773|68.107.184.0/21|US|arin|2002-02-04|ASN-CXA-ALL-CCI-22773-RDC, US
68.172.60.250|/Cannabiscoin:0.13.1/|70019|11351|68.172.0.0/17|US|arin|2002-11-25|TWC-11351-NORTHEAST, US
69.250.88.184|/Cannabiscoin:0.13.1/|70019|7922|69.240.0.0/12|US|arin|2004-02-11|COMCAST-7922, US
70.120.101.31|/Cannabiscoin:0.13.1/|70019|11427|70.120.0.0/17|US|arin|2004-09-17|TWC-11427-TEXAS, US
70.123.252.204|/Cannabiscoin:0.13.1/|70019|11427|70.122.0.0/15|US|arin|2004-09-17|TWC-11427-TEXAS, US
70.49.159.171|/Cannabiscoin:0.13.1/|70019|577|70.49.0.0/16|CA|arin|2004-05-10|BACOM, CA
71.94.159.239|/Cannabiscoin:0.13.1/|70019|20115|71.94.128.0/19|US|arin|2005-05-19|CHARTER-20115, US
72.191.35.176|/Cannabiscoin:0.13.1/|70019|11427|72.190.0.0/15|US|arin|2005-11-21|TWC-11427-TEXAS, US
77.189.87.163|/Cannabiscoin:0.13.1/|70019|6805|77.176.0.0/12|DE|ripencc|2006-11-17|TDDE-ASN1, DE
78.29.32.227|/Cannabiscoin:0.13.1/|70019|8369|78.29.32.0/19|RU|ripencc|2007-09-20|INTERSVYAZ-AS 38-B, Komsomolsky prospekt, RU
78.37.19.14|/Cannabiscoin:0.13.1/|70019|12389|78.37.16.0/22|RU|ripencc|2007-03-16|ROSTELECOM-AS, RU
79.156.108.216|/Cannabiscoin:0.13.1/|70019|3352|79.156.0.0/16|ES|ripencc|2007-06-07|TELEFONICA_DE_ESPANA, ES
79.252.125.11|/Cannabiscoin:0.13.1/|70019|3320|79.192.0.0/10|DE|ripencc|2007-06-06|DTAG Internet service provider operations, DE
80.192.231.205|/Cannabiscoin:0.13.1/|70019|5089|80.192.0.0/15|GB|ripencc|2001-09-26|NTL, GB
80.65.23.139|/Cannabiscoin:0.13.1/|70019|31257|80.65.16.0/21|RU|ripencc|2004-03-18|ORIONNET-NET, RU
81.14.52.56|/Cannabiscoin:0.13.1/|70019|42811|81.14.0.0/17|FR|ripencc|2010-04-20|HERAULT-TELECOM-AS, FR
83.221.211.116|/Cannabiscoin:0.13.0/|70018|21479|83.221.192.0/19|RU|ripencc|2004-04-15|ROSTOV-TELEGRAF-AS, RU
85.15.179.171|/Cannabiscoin:0.13.1/|70019|12389|85.15.128.0/18|RU|ripencc|2005-04-26|ROSTELECOM-AS, RU
85.19.25.38|/Cannabiscoin:0.13.1/|70019|3292|85.19.0.0/16|NO|ripencc|2005-03-16|TDC TDC A/S, DK
87.92.12.113|/Cannabiscoin:0.13.1/|70019|16086|87.92.0.0/14|FI|ripencc|2005-07-05|DNA, FI
93.36.222.44|/Cannabiscoin:0.13.1/|70019|12874|93.36.0.0/15|IT|ripencc|2008-02-25|FASTWEB, IT
95.111.247.164|/Cannabiscoin:0.13.1/|70019|51167|95.111.246.0/23|DE|ripencc|2008-12-30|CONTABO, DE
95.216.46.126|/Cannabiscoin:0.13.1/|70019|24940|95.216.0.0/16|DE|ripencc|2009-02-24|HETZNER-AS, DE
95.79.35.133|/Cannabiscoin:0.13.1/|70019|42682|95.79.0.0/16|RU|ripencc|2008-12-10|ERTH-NNOV-AS, RU
seed.cannabiscoin.net|/Cannabiscoin:0.13.1/|70019||||||
seed2.cannabiscoin.net|/Cannabiscoin:0.13.1/|70019||||||
