# https://chainz.cryptoid.info/ and whois results
# CannabisCoin
IP Address|Subver|Version|ASN|BGP Prefix|CC|Registry|Allocated|AS Name
103.96.141.121|/Cannabiscoin:0.13.1/|70019|136805|103.96.141.0/24|AU|apnic|2017-07-07|NGVPL-AS-AP Next Generation Voice PTY LTD, AU
105.186.243.212|/Cannabiscoin:0.13.1/|70019|37457|105.186.0.0/16|ZA|afrinic|2013-11-18|Telkom-Internet, ZA
108.50.170.187|/Cannabiscoin:0.13.1/|70019|701|108.50.128.0/17|US|arin|2009-06-05|UUNET, US
109.81.209.200|/Cannabiscoin:0.13.1/|70019|5610|109.81.209.0/24|CZ|ripencc|2009-07-10|O2-CZECH-REPUBLIC, CZ
116.202.251.195|/Cannabiscoin:0.8.9/|70017|24940|116.202.0.0/16|DE|ripencc|2011-01-17|HETZNER-AS, DE
118.71.224.238|/Cannabiscoin:0.13.1/|70019|18403|118.71.224.0/20|VN|apnic|2007-08-08|FPT-AS-AP The Corporation for Financing & Promoting Technology, VN
129.107.121.199|/Cannabiscoin:0.13.1/|70019|18515|129.107.0.0/16|US|arin|1987-11-06|UTARLINGTON, US
136.32.141.74|/Cannabiscoin:0.13.1/|70019|16591|136.32.128.0/20|US|arin|2015-10-06|GOOGLE-FIBER, US
137.135.18.91|/Cannabiscoin:0.13.1/|70019|8075|137.135.0.0/16|US|arin|2011-06-22|MICROSOFT-CORP-MSN-AS-BLOCK, US
138.68.243.35|/Cannabiscoin:0.13.1/|70019|14061|138.68.240.0/20|US|arin|2016-01-26|DIGITALOCEAN-ASN, US
144.217.186.92|/Cannabiscoin:0.13.1/|70019|16276|144.217.0.0/16|CA|arin|2016-09-07|OVH, FR
144.91.77.184|/Cannabiscoin:0.13.1/|70019|51167|144.91.76.0/23|DE|ripencc|1990-11-20|CONTABO, DE
155.138.151.42|/Cannabiscoin:0.13.1/|70019|20473|155.138.128.0/19|US|arin|2018-12-05|AS-CHOOPA, US
167.86.110.129|/Cannabiscoin:0.13.1/|70019|51167|167.86.110.0/23|DE|ripencc|1993-05-14|CONTABO, DE
167.86.116.187|/Cannabiscoin:0.13.1/|70019|51167|167.86.116.0/23|DE|ripencc|1993-05-14|CONTABO, DE
176.107.4.105|/Cannabiscoin:0.13.1/|70019|48320|176.107.0.0/21|RU|ripencc|2012-01-23|KETIS-AS, RU
176.27.172.42|/Satoshi:0.8.7/|70014|5607|176.24.0.0/14|GB|ripencc|2011-05-19|BSKYB-BROADBAND-AS, GB
176.76.242.230|/Cannabiscoin:0.13.1/|70019|3212|176.76.0.0/16|SI|ripencc|2011-06-15|TELEMACH Broadband Access & Carrier Services, SI
176.76.243.30|/Cannabiscoin:0.13.1/|70019|3212|176.76.0.0/16|SI|ripencc|2011-06-15|TELEMACH Broadband Access & Carrier Services, SI
178.63.9.83|/Cannabiscoin:0.13.1/|70019|24940|178.63.0.0/16|DE|ripencc|2010-03-02|HETZNER-AS, DE
181.65.77.157|/Cannabiscoin:0.13.1/|70019|6147|181.65.64.0/19|PE|lacnic|2011-08-31|Telefonica del Peru S.A.A., PE
183.88.241.175|/Cannabiscoin:0.13.1/|70019|45629|183.88.0.0/16|TH|apnic|2009-11-13|JASTEL-NETWORK-TH-AP JasTel Network International Gateway, TH
185.25.60.199|/Cannabiscoin:0.13.1/|70019|8496|185.25.60.0/24|RU|ripencc|2013-04-29|RU-OPTIBIT, RU
185.253.97.234|/Cannabiscoin:0.13.1/|70019|9009|185.253.97.0/24|RO|ripencc|2018-04-04|M247, GB
185.47.204.98|/Cannabiscoin:0.13.1/|70019|50340|185.47.204.0/22|RU|ripencc|2014-02-14|SELECTEL-MSK, RU
186.90.169.192|/Cannabiscoin:0.13.1/|70019|8048|186.90.160.0/19|VE|lacnic|2009-11-18|CANTV Servicios, Venezuela, VE
188.254.215.199|/Cannabiscoin:0.13.0/|70018|43205|188.254.128.0/17|BG|ripencc|2011-02-18|BULSATCOM-BG-AS Sofia, BG
190.205.171.216|/Cannabiscoin:0.13.1/|70019|8048|190.205.160.0/19|VE|lacnic|2007-06-13|CANTV Servicios, Venezuela, VE
190.96.1.19|/Cannabiscoin:0.13.1/|70019|18822|190.96.1.0/24|CL|lacnic|2007-07-19|Manquehuenet, CL
194.160.80.214|/Cannabiscoin:0.13.1/|70019|2607|194.160.0.0/16|SK|ripencc|1995-05-03|SANET Slovak Academic Network, SK
196.52.2.117|/Cannabiscoin:0.13.1/|70019|32780|196.52.2.0/24|ZA|afrinic|1995-10-09|HOSTINGSERVICES-INC, US
209.236.89.237|/Cannabiscoin:0.13.1/|70019|32798|209.236.88.0/23|US|arin|2010-02-26|USCONNECT-AS, US
213.127.10.140|/Cannabiscoin:0.13.1/|70019|6830|213.127.0.0/17|NL|ripencc|1999-09-16|LIBERTYGLOBAL Liberty Global (formerly UPC Broadband Holding, aka AORTA), AT
220.237.35.1|/Cannabiscoin:0.13.1/|70019|4804|220.237.32.0/19|AU|apnic|2004-07-08|MPX-AS Microplex PTY LTD, AU
221.122.37.71|/Cannabiscoin:0.13.1/|70019|23724|221.122.32.0/20|CN|apnic|2003-07-07|CHINANET-IDC-BJ-AP IDC, China Telecommunications Corporation, CN
222.252.3.21|/Cannabiscoin:0.13.1/|70019|45899|222.252.0.0/20|VN|apnic|2004-05-18|VNPT-AS-VN VNPT Corp, VN
24.116.47.125|/Cannabiscoin:0.13.1/|70019|11492|24.116.47.0/24|US|arin|1996-09-25|CABLEONE, US
24.180.41.95|/Cannabiscoin:0.13.1/|70019|20115|24.180.32.0/20|US|arin|2003-10-28|CHARTER-20115, US
24.189.39.75|/Cannabiscoin:0.13.1/|70019|6128|24.188.0.0/14|US|arin|1999-07-29|CABLE-NET-1, US
24.7.88.54|/Cannabiscoin:0.13.1/|70019|7922|24.0.0.0/12|US|arin|2003-10-06|COMCAST-7922, US
31.25.241.224|/Cannabiscoin:0.13.1/|70019|39741|31.25.241.0/24|RU|ripencc|2011-03-10|DCE-AS, RU
37.247.94.207|/Cannabiscoin:0.13.1/|70019|21413|37.247.64.0/19|DE|ripencc|2012-04-18|ENVIA-TEL-AS D-09114 Chemnitz, DE
39.106.249.79|/Satoshi:0.8.7.1/|70015|37963|39.106.0.0/15|CN|apnic|2011-04-05|CNNIC-ALIBABA-CN-NET-AP Hangzhou Alibaba Advertising Co.,Ltd., CN
46.80.6.28|/Cannabiscoin:0.13.0/|70018|3320|46.80.0.0/12|DE|ripencc|2010-06-07|DTAG Internet service provider operations, DE
46.80.9.22|/Cannabiscoin:0.13.0/|70018|3320|46.80.0.0/12|DE|ripencc|2010-06-07|DTAG Internet service provider operations, DE
47.156.123.156|/Cannabiscoin:0.13.1/|70019|5650|47.156.0.0/16|US|arin|2015-08-28|FRONTIER-FRTR, US
47.156.134.187|/Cannabiscoin:0.13.1/|70019|5650|47.156.0.0/16|US|arin|2015-08-28|FRONTIER-FRTR, US
47.32.188.115|/Cannabiscoin:0.13.1/|70019|20115|47.32.128.0/18|US|arin|2014-12-23|CHARTER-20115, US
47.35.165.35|/Cannabiscoin:0.13.1/|70019|20115|47.35.128.0/18|US|arin|2014-12-23|CHARTER-20115, US
47.56.214.134|/Cannabiscoin:0.13.1/|70019|45102|47.56.0.0/16|US|arin|2016-03-17|CNNIC-ALIBABA-US-NET-AP Alibaba (US) Technology Co., Ltd., CN
5.188.104.245|/Cannabiscoin:0.13.1/|70019|199860|5.188.104.0/23|RU|ripencc|2012-08-09|SDN-AS, RU
51.254.44.210|/Cannabiscoin:0.13.1/|70019|16276|51.254.0.0/15|FR|ripencc|1993-09-01|OVH, FR
51.38.57.53|/Cannabiscoin:0.13.1/|70019|16276|51.38.0.0/16|FR|ripencc|1993-09-01|OVH, FR
52.39.232.122|/Cannabiscoin:0.13.1/|70019|16509|52.36.0.0/14|US|arin|2015-09-02|AMAZON-02, US
58.105.128.64|/Cannabiscoin:0.13.1/|70019|4804|58.105.128.0/19|AU|apnic|2005-04-22|MPX-AS Microplex PTY LTD, AU
58.105.139.230|/Cannabiscoin:0.13.1/|70019|4804|58.105.128.0/19|AU|apnic|2005-04-22|MPX-AS Microplex PTY LTD, AU
58.96.84.1|/Cannabiscoin:0.13.1/|70019|10143|58.96.64.0/19|AU|apnic|2005-04-11|EXETEL-AS-AP Exetel Pty Ltd, AU
59.138.170.147|/Satoshi:0.8.7/|70014|2516|59.138.0.0/16|JP|apnic|2004-10-19|KDDI KDDI CORPORATION, JP
64.231.201.79|/Cannabiscoin:0.13.1/|70019|577|64.231.0.0/16|CA|arin|2000-02-15|BACOM, CA
66.151.242.154|/Cannabiscoin:0.13.1/|70019|63018|66.151.242.0/24|US|arin|2001-07-13|DEDICATED, US
66.64.43.2|/Cannabiscoin:0.13.1/|70019|11215|66.64.43.0/24|US|arin|2005-05-25|LOGIXCOMM-AS, US
67.247.20.96|/Cannabiscoin:0.13.1/|70019|12271|67.247.0.0/18|US|arin|2008-02-27|TWC-12271-NYC, US
68.150.78.147|/Satoshi:0.8.7/|70014|6327|68.150.76.0/22|CA|arin|2002-06-03|SHAW, CA
68.187.145.159|/Cannabiscoin:0.13.1/|70019|20115|68.187.144.0/20|US|arin|2002-12-31|CHARTER-20115, US
68.47.241.193|/Cannabiscoin:0.13.1/|70019|7922|68.32.0.0/11|US|arin|2001-11-29|COMCAST-7922, US
69.110.187.5|/Cannabiscoin:0.13.1/|70019|7018|69.108.0.0/14|US|arin|2003-11-21|ATT-INTERNET4, US
69.250.88.184|/Cannabiscoin:0.13.1/|70019|7922|69.240.0.0/12|US|arin|2004-02-11|COMCAST-7922, US
70.120.101.31|/Cannabiscoin:0.13.1/|70019|11427|70.120.0.0/17|US|arin|2004-09-17|TWC-11427-TEXAS, US
70.123.252.204|/Cannabiscoin:0.13.1/|70019|11427|70.122.0.0/15|US|arin|2004-09-17|TWC-11427-TEXAS, US
71.94.159.239|/Cannabiscoin:0.13.1/|70019|20115|71.94.128.0/19|US|arin|2005-05-19|CHARTER-20115, US
72.191.35.176|/Cannabiscoin:0.13.1/|70019|11427|72.190.0.0/15|US|arin|2005-11-21|TWC-11427-TEXAS, US
73.121.220.52|/Cannabiscoin:0.13.1/|70019|7922|73.0.0.0/8|US|arin|2005-04-19|COMCAST-7922, US
73.192.112.49|/Cannabiscoin:0.13.0/|70018|7922|73.0.0.0/8|US|arin|2005-04-19|COMCAST-7922, US
73.21.229.217|/Cannabiscoin:0.13.1/|70019|7922|73.0.0.0/8|US|arin|2005-04-19|COMCAST-7922, US
76.14.6.93|/Cannabiscoin:0.13.1/|70019|11404|76.14.0.0/17|US|arin|2007-05-02|AS-WAVE-1, US
76.84.159.41|/Cannabiscoin:0.13.1/|70019|11427|76.84.0.0/16|US|arin|2006-12-22|TWC-11427-TEXAS, US
77.185.254.176|/Cannabiscoin:0.13.1/|70019|6805|77.176.0.0/12|DE|ripencc|2006-11-17|TDDE-ASN1, DE
78.29.32.227|/Cannabiscoin:0.13.1/|70019|8369|78.29.32.0/19|RU|ripencc|2007-09-20|INTERSVYAZ-AS 38-B, Komsomolsky prospekt, RU
78.37.17.72|/Cannabiscoin:0.13.1/|70019|12389|78.37.16.0/22|RU|ripencc|2007-03-16|ROSTELECOM-AS, RU
78.68.47.44|/Cannabiscoin:0.13.1/|70019|3301|78.64.0.0/12|SE|ripencc|2007-03-09|TELIANET-SWEDEN Telia Company, SE
79.19.64.137|/Cannabiscoin:0.13.1/|70019|3269|79.18.0.0/15|IT|ripencc|2007-02-21|ASN-IBSNAZ, IT
79.252.125.11|/Cannabiscoin:0.13.1/|70019|3320|79.192.0.0/10|DE|ripencc|2007-06-06|DTAG Internet service provider operations, DE
83.221.211.116|/Cannabiscoin:0.13.0/|70018|21479|83.221.192.0/19|RU|ripencc|2004-04-15|ROSTOV-TELEGRAF-AS, RU
84.121.174.90|/Cannabiscoin:0.13.1/|70019|12357|84.121.160.0/20|ES|ripencc|2004-04-15|COMUNITEL SPAIN, ES
85.15.179.171|/Cannabiscoin:0.13.1/|70019|12389|85.15.128.0/18|RU|ripencc|2005-04-26|ROSTELECOM-AS, RU
85.19.25.38|/Cannabiscoin:0.13.1/|70019|3292|85.19.0.0/16|NO|ripencc|2005-03-16|TDC TDC A/S, DK
85.221.128.76|/Cannabiscoin:0.13.1/|70019|13110|85.221.128.0/17|PL|ripencc|2005-02-08|INEA-AS, PL
85.29.87.172|/Cannabiscoin:0.13.1/|70019|13170|85.29.64.0/18|FI|ripencc|2005-05-12|KPO-AS, FI
93.241.68.11|/Cannabiscoin:0.13.1/|70019|3320|93.192.0.0/10|DE|ripencc|2008-02-12|DTAG Internet service provider operations, DE
94.130.51.55|/Satoshi:0.8.7.1/|70015|24940|94.130.0.0/16|DE|ripencc|2008-06-23|HETZNER-AS, DE
95.111.247.164|/Cannabiscoin:0.13.1/|70019|51167|95.111.246.0/23|DE|ripencc|2008-12-30|CONTABO, DE
95.216.45.234|/Cannabiscoin:0.13.1/|70019|24940|95.216.0.0/16|DE|ripencc|2009-02-24|HETZNER-AS, DE
95.216.46.126|/Cannabiscoin:0.13.1/|70019|24940|95.216.0.0/16|DE|ripencc|2009-02-24|HETZNER-AS, DE
95.55.186.104|/Cannabiscoin:0.13.0/|70018|12389|95.55.128.0/18|RU|ripencc|2008-11-13|ROSTELECOM-AS, RU
95.79.35.133|/Cannabiscoin:0.13.1/|70019|42682|95.79.0.0/16|RU|ripencc|2008-12-10|ERTH-NNOV-AS, RU
seed.cannabiscoin.net|/Cannabiscoin:0.13.1/|70019||||||
seed2.cannabiscoin.net|/Cannabiscoin:0.13.1/|70019||||||
