# https://chainz.cryptoid.info/ and whois results
# CannabisCoin
IP Address|Subver|Version|ASN|BGP Prefix|CC|Registry|Allocated|AS Name
108.247.106.138|/Cannabiscoin:0.13.1/|70019|7018|108.192.0.0/10|US|arin|2011-01-12|ATT-INTERNET4, US
116.202.251.195|/Cannabiscoin:0.8.9/|70017|24940|116.202.0.0/16|DE|ripencc|2011-01-17|HETZNER-AS, DE
124.157.91.222|/Cannabiscoin:0.13.1/|70019|24324|124.157.64.0/19|NZ|apnic|2006-04-04|KORDIA-TRANSIT-AS-AP Kordia Limited, NZ
129.107.121.105|/Cannabiscoin:0.13.1/|70019|18515|129.107.0.0/16|US|arin|1987-11-06|UTARLINGTON, US
136.32.141.74|/Cannabiscoin:0.13.1/|70019|16591|136.32.128.0/20|US|arin|2015-10-06|GOOGLE-FIBER, US
137.135.18.91|/Cannabiscoin:0.13.1/|70019|8075|137.135.0.0/16|US|arin|2011-06-22|MICROSOFT-CORP-MSN-AS-BLOCK, US
138.68.243.35|/Cannabiscoin:0.13.1/|70019|14061|138.68.240.0/20|US|arin|2016-01-26|DIGITALOCEAN-ASN, US
144.91.77.184|/Cannabiscoin:0.13.1/|70019|51167|144.91.76.0/23|DE|ripencc|1990-11-20|CONTABO, DE
155.138.151.42|/Cannabiscoin:0.13.1/|70019|20473|155.138.128.0/19|US|arin|2018-12-05|AS-CHOOPA, US
167.86.116.187|/Cannabiscoin:0.13.1/|70019|51167|167.86.116.0/23|DE|ripencc|1993-05-14|CONTABO, DE
174.67.34.82|/Cannabiscoin:0.13.1/|70019|22773|174.67.32.0/19|US|arin|2009-02-19|ASN-CXA-ALL-CCI-22773-RDC, US
176.27.155.70|/Satoshi:0.8.7/|70014|5607|176.24.0.0/14|GB|ripencc|2011-05-19|BSKYB-BROADBAND-AS, GB
176.76.243.119|/Cannabiscoin:0.13.1/|70019|3212|176.76.0.0/16|SI|ripencc|2011-06-15|TELEMACH Broadband Access & Carrier Services, SI
176.94.254.32|/Cannabiscoin:0.13.1/|70019|3209|176.94.128.0/17|DE|ripencc|2011-07-11|VODANET International IP-Backbone of Vodafone, DE
178.218.98.10|/Cannabiscoin:0.13.1/|70019|49350|178.218.96.0/20|RU|ripencc|2010-04-07|TINET-AS, RU
178.63.9.83|/Cannabiscoin:0.13.1/|70019|24940|178.63.0.0/16|DE|ripencc|2010-03-02|HETZNER-AS, DE
184.22.229.214|/Cannabiscoin:0.13.1/|70019|133481|184.22.228.0/22|TH|apnic|2001-11-01|AIS-FIBRE-AS-AP AIS Fibre, TH
185.181.8.101|/Cannabiscoin:0.13.1/|70019|60781|185.181.8.0/24|NL|ripencc|2016-12-07|LEASEWEB-NL-AMS-01 Netherlands, NL
186.32.216.174|/Cannabiscoin:0.13.1/|70019|262197|186.32.216.0/23|CR|lacnic|2011-06-24|MILLICOM CABLE COSTA RICA S.A., CR
186.89.142.229|/Cannabiscoin:0.13.1/|70019|8048|186.89.128.0/19|VE|lacnic|2009-11-18|CANTV Servicios, Venezuela, VE
190.204.176.73|/Cannabiscoin:0.13.1/|70019|8048|190.204.160.0/19|VE|lacnic|2007-06-13|CANTV Servicios, Venezuela, VE
190.205.14.222|/Cannabiscoin:0.13.1/|70019|8048|190.205.0.0/19|VE|lacnic|2007-06-13|CANTV Servicios, Venezuela, VE
190.239.229.239|/Cannabiscoin:0.13.1/|70019|6147|190.239.192.0/18|PE|lacnic|2011-01-18|Telefonica del Peru S.A.A., PE
190.96.1.19|/Cannabiscoin:0.13.1/|70019|18822|190.96.1.0/24|CL|lacnic|2007-07-19|Manquehuenet, CL
194.160.80.214|/Cannabiscoin:0.13.1/|70019|2607|194.160.0.0/16|SK|ripencc|1995-05-03|SANET Slovak Academic Network, SK
216.60.185.233|/Cannabiscoin:0.13.1/|70019|7018|216.60.0.0/14|US|arin|1998-08-27|ATT-INTERNET4, US
221.122.37.71|/Cannabiscoin:0.13.1/|70019|23724|221.122.32.0/20|CN|apnic|2003-07-07|CHINANET-IDC-BJ-AP IDC, China Telecommunications Corporation, CN
24.116.47.125|/Cannabiscoin:0.13.1/|70019|11492|24.116.47.0/24|US|arin|1996-09-25|CABLEONE, US
24.246.10.56|/Cannabiscoin:0.13.1/|70019|5645|24.246.0.0/18|CA|arin|2010-10-26|TEKSAVVY, CA
31.131.191.130|/Cannabiscoin:0.13.1/|70019|56917|31.131.184.0/21|RU|ripencc|2011-06-09|DALTECH-AS, RU
31.25.241.224|/Cannabiscoin:0.13.1/|70019|39741|31.25.241.0/24|RU|ripencc|2011-03-10|DCE-AS, RU
31.45.225.163|/Cannabiscoin:0.13.1/|70019|12810|31.45.128.0/17|HR|ripencc|2011-03-10|VIPNET-AS 3G/GSM and Internet Service Provider, HR
37.213.14.63|/Cannabiscoin:0.13.1/|70019|6697|37.212.0.0/14|BY|ripencc|2012-03-30|BELPAK-AS BELPAK, BY
39.106.249.79|/Satoshi:0.8.7.1/|70015|37963|39.106.0.0/15|CN|apnic|2011-04-05|CNNIC-ALIBABA-CN-NET-AP Hangzhou Alibaba Advertising Co.,Ltd., CN
47.155.229.117|/Cannabiscoin:0.13.1/|70019|5650|47.152.0.0/14|US|arin|2015-08-28|FRONTIER-FRTR, US
47.157.217.183|/Cannabiscoin:0.13.1/|70019|5650|47.157.0.0/16|US|arin|2015-08-28|FRONTIER-FRTR, US
47.35.165.35|/Cannabiscoin:0.13.1/|70019|20115|47.35.128.0/18|US|arin|2014-12-23|CHARTER-20115, US
5.188.104.245|/Cannabiscoin:0.13.1/|70019|199860|5.188.104.0/23|RU|ripencc|2012-08-09|SDN-AS, RU
5.64.252.87|/Satoshi:0.8.7/|70014|5607|5.64.0.0/13|GB|ripencc|2012-06-11|BSKYB-BROADBAND-AS, GB
51.174.185.253|/Cannabiscoin:0.13.1/|70019|29695|51.174.0.0/15|NO|ripencc|1993-09-01|ALTIBOX_AS Norway, NO
51.254.44.206|/Cannabiscoin:0.13.1/|70019|16276|51.254.0.0/15|FR|ripencc|1993-09-01|OVH, FR
51.38.57.53|/Cannabiscoin:0.13.1/|70019|16276|51.38.0.0/16|FR|ripencc|1993-09-01|OVH, FR
51.68.204.201|/Cannabiscoin:0.13.0/|70018|16276|51.68.0.0/16|FR|ripencc|1993-09-01|OVH, FR
52.39.232.122|/Cannabiscoin:0.13.1/|70019|16509|52.36.0.0/14|US|arin|2015-09-02|AMAZON-02, US
66.151.242.154|/Cannabiscoin:0.13.1/|70019|63018|66.151.242.0/24|US|arin|2001-07-13|DEDICATED, US
67.243.162.173|/Cannabiscoin:0.13.1/|70019|12271|67.243.0.0/16|US|arin|2008-02-27|TWC-12271-NYC, US
67.247.20.96|/Cannabiscoin:0.13.1/|70019|12271|67.247.0.0/18|US|arin|2008-02-27|TWC-12271-NYC, US
68.109.151.252|/Cannabiscoin:0.13.1/|70019|22773|68.109.128.0/18|US|arin|2002-02-04|ASN-CXA-ALL-CCI-22773-RDC, US
68.112.108.244|/Cannabiscoin:0.13.1/|70019|20115|68.112.104.0/21|US|arin|2002-03-14|CHARTER-20115, US
68.205.204.77|/Cannabiscoin:0.13.1/|70019|33363|68.204.0.0/15|US|arin|2003-01-31|BHN-33363, US
68.47.241.193|/Cannabiscoin:0.13.1/|70019|7922|68.32.0.0/11|US|arin|2001-11-29|COMCAST-7922, US
69.250.88.184|/Cannabiscoin:0.13.1/|70019|7922|69.240.0.0/12|US|arin|2004-02-11|COMCAST-7922, US
70.120.101.31|/Cannabiscoin:0.13.1/|70019|11427|70.120.0.0/17|US|arin|2004-09-17|TWC-11427-TEXAS, US
70.54.32.116|/Cannabiscoin:0.13.1/|70019|577|70.54.0.0/16|CA|arin|2004-05-10|BACOM, CA
71.218.254.0|/Cannabiscoin:0.13.1/|70019|209|71.218.0.0/16|US|arin|2005-05-06|CENTURYLINK-US-LEGACY-QWEST, US
71.94.159.239|/Cannabiscoin:0.13.1/|70019|20115|71.94.128.0/19|US|arin|2005-05-19|CHARTER-20115, US
76.31.248.216|/Cannabiscoin:0.13.1/|70019|7922|76.16.0.0/12|US|arin|2006-06-28|COMCAST-7922, US
78.29.32.227|/Cannabiscoin:0.13.1/|70019|8369|78.29.32.0/19|RU|ripencc|2007-09-20|INTERSVYAZ-AS 38-B, Komsomolsky prospekt, RU
78.37.19.117|/Cannabiscoin:0.13.1/|70019|12389|78.37.16.0/22|RU|ripencc|2007-03-16|ROSTELECOM-AS, RU
78.68.47.44|/Cannabiscoin:0.13.1/|70019|3301|78.64.0.0/12|SE|ripencc|2007-03-09|TELIANET-SWEDEN Telia Company, SE
79.244.150.192|/Cannabiscoin:0.13.1/|70019|3320|79.192.0.0/10|DE|ripencc|2007-06-06|DTAG Internet service provider operations, DE
80.192.231.205|/Cannabiscoin:0.13.1/|70019|5089|80.192.0.0/15|GB|ripencc|2001-09-26|NTL, GB
80.65.23.139|/Cannabiscoin:0.13.1/|70019|31257|80.65.16.0/21|RU|ripencc|2004-03-18|ORIONNET-NET, RU
83.221.211.116|/Cannabiscoin:0.13.0/|70018|21479|83.221.192.0/19|RU|ripencc|2004-04-15|ROSTOV-TELEGRAF-AS, RU
84.121.174.90|/Cannabiscoin:0.13.1/|70019|12357|84.121.160.0/20|ES|ripencc|2004-04-15|COMUNITEL SPAIN, ES
85.15.179.171|/Cannabiscoin:0.13.1/|70019|12389|85.15.128.0/18|RU|ripencc|2005-04-26|ROSTELECOM-AS, RU
85.19.25.38|/Cannabiscoin:0.13.1/|70019|3292|85.19.0.0/16|NO|ripencc|2005-03-16|TDC TDC A/S, DK
85.29.228.48|/Cannabiscoin:0.13.1/|70019|3249|85.29.192.0/18|EE|ripencc|2005-05-20|ESTPAK, EE
89.113.141.187|/Cannabiscoin:0.13.1/|70019|16345|89.113.136.0/21|RU|ripencc|2006-04-10|BEE-AS Russia, RU
93.241.68.11|/Cannabiscoin:0.13.1/|70019|3320|93.192.0.0/10|DE|ripencc|2008-02-12|DTAG Internet service provider operations, DE
94.210.102.131|/Cannabiscoin:0.13.1/|70019|33915|94.208.0.0/14|NL|ripencc|2008-07-22|TNF-AS, NL
95.111.247.164|/Cannabiscoin:0.13.1/|70019|51167|95.111.246.0/23|DE|ripencc|2008-12-30|CONTABO, DE
95.79.35.133|/Cannabiscoin:0.13.1/|70019|42682|95.79.0.0/16|RU|ripencc|2008-12-10|ERTH-NNOV-AS, RU
95.90.203.36|/Cannabiscoin:0.13.1/|70019|3209|95.88.0.0/14|DE|ripencc|2008-12-15|VODANET International IP-Backbone of Vodafone, DE
seed.cannabiscoin.net|/Cannabiscoin:0.13.1/|70019||||||
seed2.cannabiscoin.net|/Cannabiscoin:0.13.1/|70019||||||
