# https://chainz.cryptoid.info/ and whois results
# Einsteinium
IP Address|Subver|Version|ASN|BGP Prefix|CC|Registry|Allocated|AS Name
109.202.24.232|/EinsteiniumCore:0.13.5/|70015|25549|109.202.24.0/21|RU|ripencc|2010-02-12|AVANTEL-AS, RU
116.202.132.28|/EinsteiniumCore:0.13.6/|70015|24940|116.202.0.0/16|DE|ripencc|2011-01-17|HETZNER-AS, DE
116.202.171.210|/EinsteiniumCore:0.13.6/|70015|24940|116.202.0.0/16|DE|ripencc|2011-01-17|HETZNER-AS, DE
138.201.207.24|/EinsteiniumCore:0.13.7/|70015|24940|138.201.0.0/16|DE|ripencc|1990-05-23|HETZNER-AS, DE
142.44.212.178|/EinsteiniumCore:0.13.5/|70015|16276|142.44.128.0/17|CA|arin|2017-06-21|OVH, FR
145.239.0.106|/EinsteiniumCore:0.13.7/|70015|16276|145.239.0.0/16|FR|ripencc|1993-08-03|OVH, FR
167.71.83.185|/EinsteiniumCore:0.13.6/|70015|14061|167.71.80.0/20|US|arin|2019-04-24|DIGITALOCEAN-ASN, US
175.107.2.175|/EinsteiniumCore:0.13.48/|70015|23888|175.107.0.0/22|PK|apnic|2010-01-08|NTC-AS-AP National Telecommunication Corporation HQ, PK
176.76.243.137|/EinsteiniumCore:0.13.48/|70015|3212|176.76.0.0/16|SI|ripencc|2011-06-15|TELEMACH Broadband Access & Carrier Services, SI
176.9.8.187|/EinsteiniumCore:0.13.6/|70015|24940|176.9.0.0/16|DE|ripencc|2011-05-17|HETZNER-AS, DE
176.98.43.229|/EinsteiniumCore:0.13.7/|70015|202505|176.98.43.0/24|TR|ripencc|2018-09-03|ONLINENET, TR
178.157.14.225|/EinsteiniumCore:0.13.7/|70015|42807|178.157.8.0/21|TR|ripencc|2010-06-25|AEROTEK-AS, TR
178.191.133.8|/EinsteiniumCore:0.13.48/|70015|8447|178.188.0.0/14|AT|ripencc|2010-02-08|TELEKOM-AT A1 Telekom Austria AG, AT
178.238.224.213|/EinsteiniumCore:0.13.48/|70015|51167|178.238.224.0/23|DE|ripencc|2010-07-28|CONTABO, DE
190.140.20.59|/Satoshi:0.9.1/|70005|18809|190.140.0.0/19|PA|lacnic|2006-12-28|Cable Onda, PA
190.96.1.19|/EinsteiniumCore:0.13.5/|70015|18822|190.96.1.0/24|CL|lacnic|2007-07-19|Manquehuenet, CL
192.154.213.187|/EinsteiniumCore:0.13.7/|70015|397423|192.154.213.0/24|US|arin|2013-01-11|TIER-NET, US
192.99.20.59|/EinsteiniumCore:0.13.7/|70015|16276|192.99.0.0/16|CA|arin|2013-06-17|OVH, FR
196.50.198.176|/EinsteiniumCore:0.13.5/|70015|327782|196.50.192.0/18|ZA|afrinic|2017-03-01|METROFIBRE-NETWORX, ZA
202.47.48.49|/EinsteiniumCore:0.13.5/|70015|9541|202.47.48.0/24|PK|apnic|1998-06-15|CYBERNET-AP Cyber Internet Services (Pvt) Ltd., PK
203.198.146.232|/EinsteiniumCore:0.13.7/|70015|4760|203.198.144.0/20|HK|apnic|2000-07-12|HKTIMS-AP HKT Limited, HK
39.60.20.36|/EinsteiniumCore:0.13.5/|70015|17557|39.60.0.0/17|PK|apnic|2011-03-28|PKTELECOM-AS-PK Pakistan Telecommunication Company Limited, PK
47.93.161.68|/EinsteiniumCore:0.13.48/|70015|37963|47.92.0.0/15|CN|apnic|1989-01-06|CNNIC-ALIBABA-CN-NET-AP Hangzhou Alibaba Advertising Co.,Ltd., CN
51.210.5.248|/EinsteiniumCore:0.13.7/|70015|16276|51.210.0.0/16|FR|ripencc|1993-09-01|OVH, FR
51.81.46.155|/EinsteiniumCore:0.13.7/|70015|16276|51.81.0.0/17|US|arin|2019-03-11|OVH, FR
68.49.229.127|/EinsteiniumCore:0.13.5/|70015|7922|68.32.0.0/11|US|arin|2001-11-29|COMCAST-7922, US
72.193.178.248|/EinsteiniumCore:0.13.5/|70015|22773|72.193.0.0/16|US|arin|2005-08-03|ASN-CXA-ALL-CCI-22773-RDC, US
73.36.20.239|/EinsteiniumCore:0.13.48/|70015|7922|73.0.0.0/8|US|arin|2005-04-19|COMCAST-7922, US
77.220.213.193|/EinsteiniumCore:0.13.48/|70015|204601|77.220.213.0/24|NL|ripencc|2007-03-23|ON-LINE-DATA Server location - Netherlands, Dronten, NL
78.128.125.38|/EinsteiniumCore:0.13.48/|70015|48584|78.128.124.0/23|BG|ripencc|2007-04-05|SARNICA-AS, BG
84.197.20.137|/EinsteiniumCore:0.13.5/|70015|6848|84.192.0.0/13|BE|ripencc|2004-04-21|TELENET-AS, BE
84.234.52.190|/EinsteiniumCore:0.13.6/|70015|49560|84.234.48.0/20|MD|ripencc|2009-07-02|LINKS-MD-AS, MD
85.15.179.171|/EinsteiniumCore:0.13.5/|70015|12389|85.15.128.0/18|RU|ripencc|2005-04-26|ROSTELECOM-AS, RU
86.123.56.96|/EinsteiniumCore:0.13.5/|70015|8708|86.120.0.0/13|RO|ripencc|2005-03-16|RCS-RDS 73-75 Dr. Staicovici, RO
93.103.216.243|/EinsteiniumCore:0.13.48/|70015|34779|93.103.192.0/19|SI|ripencc|2008-03-14|T-2-AS AS set propagated by T-2, d.o.o., SI
