# https://chainz.cryptoid.info/ and whois results
# Groestlcoin
IP Address|Subver|Version|ASN|BGP Prefix|CC|Registry|Allocated|AS Name
104.236.130.222|/Groestlcoin:2.20.1/|70015|14061|104.236.128.0/18|US|arin|2014-10-28|DIGITALOCEAN-ASN, US
104.236.14.225|/Groestlcoin:2.20.1/|70015|14061|104.236.0.0/18|US|arin|2014-10-28|DIGITALOCEAN-ASN, US
104.238.191.11|/Groestlcoin:2.20.1/|70015|20473|104.238.188.0/22|US|arin|2014-11-13|AS-CHOOPA, US
108.61.190.34|/Groestlcoin:2.20.1/|70015|20473|108.61.190.0/24|US|arin|2010-12-08|AS-CHOOPA, US
109.233.109.26|/Groestlcoin:2.17.2/|70015|48716|109.233.109.0/24|KZ|ripencc|2018-06-29|PS, KZ
127.0.0.1|/GroestlcoinJ:0.13.3/Cartographer:1.2(groestlcoin.org)/|70002|NA|NA||other||NA
128.199.158.215|/Groestlcoin:2.20.1/|70015|14061|128.199.128.0/18|GB|ripencc|1999-04-12|DIGITALOCEAN-ASN, US
128.199.242.30|/Groestlcoin:2.20.1/|70015|14061|128.199.192.0/18|GB|ripencc|1999-04-12|DIGITALOCEAN-ASN, US
128.199.255.51|/Groestlcoin:2.20.1/|70015|14061|128.199.192.0/18|GB|ripencc|1999-04-12|DIGITALOCEAN-ASN, US
13.229.99.77|/Groestlcoin:2.17.2/|70015|16509|13.228.0.0/15|US|arin|2016-08-09|AMAZON-02, US
138.201.168.94|/Groestlcoin:2.20.1(bitcore-grs)/|70015|24940|138.201.0.0/16|DE|ripencc|1990-05-23|HETZNER-AS, DE
138.68.131.104|/Groestlcoin:2.20.1/|70015|14061|138.68.128.0/20|US|arin|2016-01-26|DIGITALOCEAN-ASN, US
139.59.16.104|/Groestlcoin:2.20.1/|70015|14061|139.59.16.0/20|SG|apnic|1990-06-27|DIGITALOCEAN-ASN, US
145.239.0.106|/Groestlcoin:2.20.1/|70015|16276|145.239.0.0/16|FR|ripencc|1993-08-03|OVH, FR
146.185.142.49|/Groestlcoin:2.20.1/|70015|14061|146.185.128.0/19|NL|ripencc|2011-07-13|DIGITALOCEAN-ASN, US
159.203.85.176|/Groestlcoin:2.20.1/|70015|14061|159.203.80.0/20|US|arin|2015-08-10|DIGITALOCEAN-ASN, US
161.117.86.191|/Groestlcoin:2.20.1/|70015|45102|161.117.0.0/17|SG|apnic|1992-07-09|CNNIC-ALIBABA-US-NET-AP Alibaba (US) Technology Co., Ltd., CN
175.198.96.228|/Groestlcoin:2.19.1/|70015|4766|175.192.0.0/13|KR|apnic|2010-01-27|KIXS-AS-KR Korea Telecom, KR
176.123.7.145|???|0|200019|176.123.0.0/21|MD|ripencc|2012-07-26|ALEXHOST, MD
178.79.93.193|/Groestlcoin:2.13.3/|70015|3212|178.79.64.0/18|SI|ripencc|2010-05-07|TELEMACH Broadband Access & Carrier Services, SI
18.27.197.252|???|0|3|18.27.0.0/16|US|arin|1994-01-01|MIT-GATEWAYS, US
185.100.87.206|???|0|200651|185.100.87.0/24|RO|ripencc|2015-05-15|FLOKINET, SC
185.107.47.215|???|0|43350|185.107.44.0/22|NL|ripencc|2015-07-03|NFORCE, NL
185.146.157.196|???|0|29182|185.146.156.0/23|RU|ripencc|2016-04-08|THEFIRST-AS, RU
185.220.100.244|???|0|205100|185.220.100.0/24|DE|ripencc|2017-09-12|F3NETZE, DE
185.220.100.255|???|0|205100|185.220.100.0/24|DE|ripencc|2017-09-12|F3NETZE, DE
185.220.101.14|???|0|208294|185.220.101.0/24|DE|ripencc|2017-09-12|ASMK, NL
185.220.101.144|???|0|208294|185.220.101.0/24|DE|ripencc|2017-09-12|ASMK, NL
185.220.101.15|/Groestlcoin:2.17.2/|70015|208294|185.220.101.0/24|DE|ripencc|2017-09-12|ASMK, NL
185.220.101.17|???|0|208294|185.220.101.0/24|DE|ripencc|2017-09-12|ASMK, NL
185.220.101.20|???|0|208294|185.220.101.0/24|DE|ripencc|2017-09-12|ASMK, NL
185.220.101.205|???|0|208294|185.220.101.0/24|DE|ripencc|2017-09-12|ASMK, NL
185.220.101.207|???|0|208294|185.220.101.0/24|DE|ripencc|2017-09-12|ASMK, NL
185.220.101.3|???|0|208294|185.220.101.0/24|DE|ripencc|2017-09-12|ASMK, NL
185.220.101.8|???|0|208294|185.220.101.0/24|DE|ripencc|2017-09-12|ASMK, NL
188.166.19.174|/Groestlcoin:2.17.2/|70015|14061|188.166.0.0/18|NL|ripencc|2009-06-05|DIGITALOCEAN-ASN, US
198.199.105.43|/Groestlcoin:2.20.1/|70015|14061|198.199.96.0/20|US|arin|2013-03-27|DIGITALOCEAN-ASN, US
199.217.115.41|/Groestlcoin:2.19.1/|70015|30083|199.217.112.0/21|US|arin|2012-06-21|AS-30083-GO-DADDY-COM-LLC, US
199.247.31.182|/grswire:0.5.0/grsd:0.20.1/|70013|20473|199.247.24.0/21|EU|ripencc|1996-04-09|AS-CHOOPA, US
203.198.146.232|/Groestlcoin:2.20.1/|70015|4760|203.198.144.0/20|HK|apnic|2000-07-12|HKTIMS-AP HKT Limited, HK
23.129.64.186|???|0|396507|23.129.64.0/24|US|arin|2017-07-19|EMERALD-ONION, US
23.129.64.193|???|0|396507|23.129.64.0/24|US|arin|2017-07-19|EMERALD-ONION, US
3.112.35.208|/Groestlcoin:2.18.2/|70015|16509|3.112.0.0/14|US|arin|2017-12-20|AMAZON-02, US
37.139.19.131|/Groestlcoin:2.20.1/|70015|14061|37.139.0.0/19|NL|ripencc|2012-02-24|DIGITALOCEAN-ASN, US
45.154.168.201|???|0|208196|45.154.168.0/22|FR|ripencc|2019-09-17|DORIANGALIANA, FR
45.55.208.60|/Groestlcoin:2.20.1/|70015|14061|45.55.192.0/18|US|arin|2015-02-05|DIGITALOCEAN-ASN, US
45.63.25.237|/Groestlcoin:2.20.1/|70015|20473|45.63.24.0/21|US|arin|2015-01-02|AS-CHOOPA, US
45.76.42.65|/Groestlcoin:2.11.0/|70002|20473|45.76.40.0/22|US|arin|2015-04-24|AS-CHOOPA, US
46.101.100.9|/Groestlcoin:2.20.1/|70015|14061|46.101.96.0/19|NL|ripencc|2010-06-24|DIGITALOCEAN-ASN, US
46.101.148.45|/Groestlcoin:2.20.1/|70015|14061|46.101.128.0/17|NL|ripencc|2010-06-24|DIGITALOCEAN-ASN, US
46.165.245.154|???|0|28753|46.165.192.0/18|DE|ripencc|2010-12-13|LEASEWEB-DE-FRA-10, DE
47.112.142.148|/Groestlcoin:2.17.2/|70015|37963|47.112.0.0/16|CN|apnic|1989-01-06|CNNIC-ALIBABA-CN-NET-AP Hangzhou Alibaba Advertising Co.,Ltd., CN
47.240.34.224|/Groestlcoin:2.18.2/|70015|45102|47.240.0.0/17|US|arin|2016-04-15|CNNIC-ALIBABA-US-NET-AP Alibaba (US) Technology Co., Ltd., CN
47.56.186.154|/Groestlcoin:2.20.1/|70015|45102|47.56.0.0/16|US|arin|2016-03-17|CNNIC-ALIBABA-US-NET-AP Alibaba (US) Technology Co., Ltd., CN
51.15.43.205|???|0|12876|51.15.0.0/17|FR|ripencc|1993-09-01|Online SAS, FR
51.79.53.134|???|0|16276|51.79.0.0/17|CA|arin|2019-01-10|OVH, FR
54.199.232.136|/Groestlcoin:2.18.2/|70015|16509|54.199.128.0/17|US|arin|2013-06-19|AMAZON-02, US
54.38.81.231|???|0|16276|54.38.0.0/16|FR|ripencc|1992-03-17|OVH, FR
66.70.182.1|/Groestlcoin:2.20.1/|70015|16276|66.70.128.0/17|CA|arin|2017-02-13|OVH, FR
70.91.250.149|/Groestlcoin:2.17.2/|70015|7922|70.88.0.0/14|US|arin|2004-08-09|COMCAST-7922, US
77.247.181.163|???|0|43350|77.247.176.0/21|NL|ripencc|2007-06-26|NFORCE, NL
77.250.11.89|/Groestlcoin:2.13.3/|70015|6830|77.250.0.0/15|NL|ripencc|2007-01-26|LIBERTYGLOBAL Liberty Global (formerly UPC Broadband Holding, aka AORTA), AT
85.250.34.134|/groestlcoinj:0.15-LNWALLET/|70012|1680|85.250.0.0/16|IL|ripencc|2005-01-25|NV-ASN CELLCOM ltd., IL
95.21.52.214|/Groestlcoin:2.18.2/|70015|12479|95.21.52.0/22|ES|ripencc|2008-11-10|UNI2-AS, ES
