# https://chainz.cryptoid.info/ and whois results
# Lanacoin
IP Address|Subver|Version|ASN|BGP Prefix|CC|Registry|Allocated|AS Name
101.181.109.154|/Lana:1.0.0.1/|60001|1221|101.160.0.0/11|AU|apnic|2010-12-23|ASN-TELSTRA Telstra Corporation Ltd, AU
102.165.232.141|/Lana:1.0.0.1/|60001|37315|102.165.232.0/21|ZA|afrinic|2018-01-30|CipherWave, ZA
107.150.52.74|/Lana:1.0.0.1/|60001|33387|107.150.32.0/19|US|arin|2013-12-03|NOCIX, US
148.59.149.52|/Lana:1.0.0.1/|60001|396477|148.59.149.0/24|CA|arin|2017-08-01|DNSNETWORKS, CA
151.55.144.33|/Lana:1.0.0.1/|60001|1267|151.55.0.0/16|IT|ripencc|1991-05-13|ASN-WINDTRE IUNET, EU
159.65.206.24|/Lana:1.0.0.1/|60001|14061|159.65.192.0/20|US|arin|2017-10-24|DIGITALOCEAN-ASN, US
178.47.101.161|/Lana:1.0.0.1/|60001|12389|178.47.96.0/19|RU|ripencc|2010-02-26|ROSTELECOM-AS, RU
184.166.191.62|/Lana:1.0.0.1/|60001|33588|184.166.0.0/15|US|arin|2010-07-28|BRESNAN-33588, US
185.82.202.162|/Lana:1.0.0.1/|60001|60117|185.82.202.0/24|NL|ripencc|2014-12-31|HS, AE
188.196.202.244|/Lana:1.0.0.1/|60001|5603|188.196.0.0/16|SI|ripencc|2011-01-24|SIOL-NET Telekom Slovenije d.d., SI
189.54.192.176|/Lana:1.0.0.1/|60001|28573|189.54.192.0/19|BR|lacnic|2007-07-30|CLARO S.A., BR
193.138.39.158|/Lana:1.0.0.1/|60001|34779|193.138.32.0/20|SI|ripencc|1995-07-13|T-2-AS AS set propagated by T-2, d.o.o., SI
193.164.140.162|/Lana:1.0.0.1/|60001|41427|193.164.140.0/24|SI|ripencc|2006-08-18|MARC-NET_AS, SI
193.77.158.82|/Lana:1.0.0.1/|60001|5603|193.77.128.0/18|SI|ripencc|1993-09-01|SIOL-NET Telekom Slovenije d.d., SI
210.107.192.66|/Lana:1.0.0.1/|60001|4766|210.107.192.0/20|KR|apnic|1997-08-29|KIXS-AS-KR Korea Telecom, KR
211.184.61.138|/Lana:1.0.0.1/|60001|4766|211.184.0.0/15|KR|apnic|2000-05-26|KIXS-AS-KR Korea Telecom, KR
212.85.163.232|/Lana:1.0.0.1/|60001|3212|212.85.160.0/19|SI|ripencc|2010-07-05|TELEMACH Broadband Access & Carrier Services, SI
24.132.202.61|/Lana:1.0.0.1/|60001|6830|24.132.128.0/17|NL|ripencc|2000-01-17|LIBERTYGLOBAL Liberty Global (formerly UPC Broadband Holding, aka AORTA), AT
31.53.50.90|/Lana:1.0.0.1/|60001|2856|31.48.0.0/13|GB|ripencc|2010-12-31|BT-UK-AS BTnet UK Regional network, GB
37.221.194.168|/Lana:1.0.0.1/|60001|197540|37.221.192.0/21|DE|ripencc|2012-04-10|NETCUP-AS netcup GmbH, DE
46.101.235.143|/Lana:1.0.0.1/|60001|14061|46.101.128.0/17|NL|ripencc|2010-06-24|DIGITALOCEAN-ASN, US
49.198.52.126|/Lana:1.0.0.1/|60001|4804|49.198.0.0/16|AU|apnic|2010-12-02|MPX-AS Microplex PTY LTD, AU
5.9.145.235|/Lana:1.0.0.1/|60001|24940|5.9.0.0/16|DE|ripencc|2012-04-25|HETZNER-AS, DE
51.38.57.53|/Lana:1.0.0.1/|60001|16276|51.38.0.0/16|FR|ripencc|1993-09-01|OVH, FR
58.240.66.142|/Lana:1.0.0.1/|60001|4837|58.240.0.0/15|CN|apnic|2005-06-03|CHINA169-BACKBONE CHINA UNICOM China169 Backbone, CN
71.121.223.146|/Lana:1.0.0.1/|60001|701|71.121.128.0/17|US|arin|2005-01-18|UUNET, US
74.62.185.1|/Lana:1.0.0.1/|60001|46292|74.62.185.0/24|US|arin|2006-04-07|MOJAVEWIFI-COM-CA-1, US
81.93.71.42|/Lana:1.0.0.1/|60001|25144|81.93.64.0/19|BA|ripencc|2002-08-07|TELEKOM-SRPSKE-AS Kralja Petra I Karadjordjevica 61a, BA
83.255.201.200|/Lana:1.0.0.1/|60001|39651|83.255.192.0/20|SE|ripencc|2004-03-04|COMHEM-SWEDEN, SE
84.162.163.93|/Lana:1.0.0.1/|60001|3320|84.128.0.0/10|DE|ripencc|2004-03-10|DTAG Internet service provider operations, DE
84.162.165.68|/Lana:1.0.0.1/|60001|3320|84.128.0.0/10|DE|ripencc|2004-03-10|DTAG Internet service provider operations, DE
86.86.168.91|/Lana:1.0.0.1/|60001|1136|86.80.0.0/12|NL|ripencc|2005-03-23|KPN KPN National, EU
87.205.3.214|/Lana:1.0.0.1/|60001|12741|87.204.0.0/15|PL|ripencc|2005-07-06|AS-NETIA Warszawa 02-822, PL
89.142.73.112|/Lana:1.0.0.1/|60001|5603|89.142.64.0/18|SI|ripencc|2006-03-03|SIOL-NET Telekom Slovenije d.d., SI
89.212.11.158|/Lana:1.0.0.1/|60001|34779|89.212.0.0/18|SI|ripencc|2006-05-03|T-2-AS AS set propagated by T-2, d.o.o., SI
89.212.118.169|/Lana:1.0.0.1/|60001|34779|89.212.64.0/18|SI|ripencc|2006-05-03|T-2-AS AS set propagated by T-2, d.o.o., SI
92.251.249.82|/Lana:1.0.0.1/|60001|13280|92.251.248.0/22|IE|ripencc|2007-11-23|H3G, IE
92.37.25.60|/Lana:1.0.0.1/|60001|21283|92.37.0.0/17|SI|ripencc|2008-01-14|A1SI-AS A1 Slovenija, SI
92.37.57.245|/Lana:1.0.0.1/|60001|21283|92.37.0.0/17|SI|ripencc|2008-01-14|A1SI-AS A1 Slovenija, SI
93.103.20.240|/Lana:1.0.0.1/|60001|34779|93.103.0.0/19|SI|ripencc|2008-03-14|T-2-AS AS set propagated by T-2, d.o.o., SI
95.217.77.209|/Lana:1.0.0.1/|60001|24940|95.217.0.0/16|DE|ripencc|2009-02-24|HETZNER-AS, DE
95.90.198.164|/Lana:1.0.0.1/|60001|3209|95.88.0.0/14|DE|ripencc|2008-12-15|VODANET International IP-Backbone of Vodafone, DE
97.73.244.144|/Lana:1.0.0.1/|60001|6621|97.73.244.0/22|US|arin|2007-08-03|HNS-DIRECPC, US
