# https://chainz.cryptoid.info/ and whois results
# Lanacoin
IP Address|Subver|Version|ASN|BGP Prefix|CC|Registry|Allocated|AS Name
101.181.128.33|/Lana:1.0.0.1/|60001|1221|101.160.0.0/11|AU|apnic|2010-12-23|ASN-TELSTRA Telstra Corporation Ltd, AU
107.150.52.74|/Lana:1.0.0.1/|60001|33387|107.150.32.0/19|US|arin|2013-12-03|NOCIX, US
116.203.187.38|/Lana:1.0.0.1/|60001|24940|116.203.0.0/16|DE|ripencc|2011-01-17|HETZNER-AS, DE
12.245.223.10|???|0|7018|12.128.0.0/9|US|arin|1983-08-23|ATT-INTERNET4, US
142.167.251.177|/Lana:1.0.0.1/|60001|855|142.167.248.0/22|CA|arin|1992-08-26|CANET-ASN-4, CA
144.48.39.44|/Lana:1.0.0.1/|60001|136557|144.48.39.0/24|IN|apnic|2016-04-07|HOST-AS-AP Host Universal Pty Ltd, AU
151.55.142.31|/Lana:1.0.0.1/|60001|1267|151.55.0.0/16|IT|ripencc|1991-05-13|ASN-WINDTRE IUNET, EU
156.155.176.25|/Lana:1.0.0.1/|60001|37611|156.155.0.0/16|ZA|afrinic|2017-03-03|Afrihost, ZA
159.65.206.24|/Lana:1.0.0.1/|60001|14061|159.65.192.0/20|US|arin|2017-10-24|DIGITALOCEAN-ASN, US
173.69.131.85|/Lana:1.0.0.1/|60001|701|173.69.128.0/17|US|arin|2008-08-11|UUNET, US
180.191.169.193|/Lana:1.0.0.1/|60001|132199|180.191.168.0/22|PH|apnic|2009-09-17|GLOBE-MOBILE-5TH-GEN-AS Globe Telecom Inc., PH
185.22.143.47|/Lana:1.0.0.1/|60001|60294|185.22.143.0/24|DE|ripencc|2013-03-28|DE-DGW Deutsche Glasfaser Wholesale Internet, DE
187.107.88.31|/Lana:1.0.0.1/|60001|28573|187.107.64.0/19|BR|lacnic|2009-11-18|CLARO S.A., BR
188.137.29.104|/Lana:1.0.0.1/|60001|13000|188.137.0.0/17|PL|ripencc|2009-05-06|LEON-AS, PL
188.196.237.100|/Lana:1.0.0.1/|60001|5603|188.196.0.0/15|SI|ripencc|2011-01-24|SIOL-NET Telekom Slovenije d.d., SI
193.138.39.158|/Lana:1.0.0.1/|60001|34779|193.138.32.0/20|SI|ripencc|1995-07-13|T-2-AS AS set propagated by T-2, d.o.o., SI
193.164.140.162|/Lana:1.0.0.1/|60001|41427|193.164.140.0/24|SI|ripencc|2006-08-18|MARC-NET_AS, SI
193.77.158.82|/Lana:1.0.0.1/|60001|5603|193.77.128.0/18|SI|ripencc|1993-09-01|SIOL-NET Telekom Slovenije d.d., SI
211.184.61.138|/Lana:1.0.0.1/|60001|4766|211.184.0.0/15|KR|apnic|2000-05-26|KIXS-AS-KR Korea Telecom, KR
212.85.163.232|/Lana:1.0.0.1/|60001|3212|212.85.160.0/19|SI|ripencc|2010-07-05|TELEMACH Broadband Access & Carrier Services, SI
24.132.202.61|/Lana:1.0.0.1/|60001|6830|24.132.128.0/17|NL|ripencc|2000-01-17|LGI-UPC formerly known as UPC Broadband Holding B.V., AT
37.221.194.168|/Lana:1.0.0.1/|60001|197540|37.221.192.0/21|DE|ripencc|2012-04-10|NETCUP-AS netcup GmbH, DE
45.55.195.243|/Lana:1.0.0.1/|60001|14061|45.55.192.0/18|US|arin|2015-02-05|DIGITALOCEAN-ASN, US
46.101.235.143|/Lana:1.0.0.1/|60001|14061|46.101.128.0/17|NL|ripencc|2010-06-24|DIGITALOCEAN-ASN, US
5.62.41.126|/Lana:1.0.0.1/|60001|198605|5.62.40.0/23|GB|ripencc|2012-06-08|AVAST-AS-DC, CZ
5.9.145.235|/Lana:1.0.0.1/|60001|24940|5.9.0.0/16|DE|ripencc|2012-04-25|HETZNER-AS, DE
51.38.57.53|/Lana:1.0.0.1/|60001|16276|51.38.0.0/16|FR|ripencc|1993-09-01|OVH, FR
58.240.66.142|/Lana:1.0.0.1/|60001|4837|58.240.0.0/15|CN|apnic|2005-06-03|CHINA169-BACKBONE CHINA UNICOM China169 Backbone, CN
67.5.7.22|/Lana:1.0.0.1/|60001|209|67.0.0.0/13|US|arin|2001-07-26|CENTURYLINK-US-LEGACY-QWEST, US
74.62.185.1|/Lana:1.0.0.1/|60001|46292|74.62.185.0/24|US|arin|2006-04-07|MOJAVEWIFI-COM-CA-1, US
81.93.71.42|/Lana:1.0.0.1/|60001|25144|81.93.64.0/19|BA|ripencc|2002-08-07|TELEKOM-SRPSKE-AS Kralja Petra I Karadjordjevica 61a, BA
82.161.34.149|/Lana:1.0.0.1/|60001|3265|82.161.0.0/16|NL|ripencc|2003-07-14|XS4ALL-NL Amsterdam, NL
82.211.144.79|/Lana:1.0.0.1/|60001|16010|82.211.128.0/19|GE|ripencc|2011-02-21|MAGTICOMAS Caucasus-Online, GE
83.233.63.90|/Lana:1.0.0.1/|60001|29518|83.233.0.0/16|SE|ripencc|2004-02-06|BREDBAND2, SE
83.255.201.200|/Lana:1.0.0.1/|60001|39651|83.255.192.0/20|SE|ripencc|2004-03-04|COMHEM-SWEDEN, SE
84.162.163.187|/Lana:1.0.0.1/|60001|3320|84.128.0.0/10|DE|ripencc|2004-03-10|DTAG Internet service provider operations, DE
86.169.98.138|/Lana:1.0.0.1/|60001|2856|86.128.0.0/10|GB|ripencc|2005-02-07|BT-UK-AS BTnet UK Regional network, GB
86.86.168.91|/Lana:1.0.0.1/|60001|1136|86.80.0.0/12|NL|ripencc|2005-03-23|KPN KPN National, EU
87.205.3.214|/Lana:1.0.0.1/|60001|12741|87.204.0.0/15|PL|ripencc|2005-07-06|AS-NETIA Warszawa 02-822, PL
89.142.75.60|/Lana:1.0.0.1/|60001|5603|89.142.64.0/18|SI|ripencc|2006-03-03|SIOL-NET Telekom Slovenije d.d., SI
89.212.11.158|/Lana:1.0.0.1/|60001|34779|89.212.0.0/18|SI|ripencc|2006-05-03|T-2-AS AS set propagated by T-2, d.o.o., SI
89.212.118.169|/Lana:1.0.0.1/|60001|34779|89.212.64.0/18|SI|ripencc|2006-05-03|T-2-AS AS set propagated by T-2, d.o.o., SI
89.212.21.117|/Lana:1.0.0.1/|60001|34779|89.212.0.0/18|SI|ripencc|2006-05-03|T-2-AS AS set propagated by T-2, d.o.o., SI
90.151.206.226|/Lana:1.0.0.1/|60001|12389|90.151.192.0/20|RU|ripencc|2006-12-19|ROSTELECOM-AS, RU
90.157.242.29|/Lana:1.0.0.1/|60001|8591|90.157.128.0/17|SI|ripencc|2006-11-17|A1SLOVENIJA http://www.A1.si/, SI
92.251.226.161|/Lana:1.0.0.1/|60001|13280|92.251.128.0/17|IE|ripencc|2007-11-23|H3G, IE
92.37.76.239|/Lana:1.0.0.1/|60001|8591|92.37.0.0/17|SI|ripencc|2008-01-14|A1SLOVENIJA http://www.A1.si/, SI
93.103.20.240|/Lana:1.0.0.1/|60001|34779|93.103.0.0/19|SI|ripencc|2008-03-14|T-2-AS AS set propagated by T-2, d.o.o., SI
95.111.234.166|/Lana:1.0.0.1/|60001|51167|95.111.234.0/23|DE|ripencc|2008-12-30|CONTABO, DE
95.217.77.209|/Lana:1.0.0.1/|60001|24940|95.217.0.0/16|DE|ripencc|2009-02-24|HETZNER-AS, DE
95.90.198.164|/Lana:1.0.0.1/|60001|31334|95.90.198.0/23|DE|ripencc|2008-12-15|KABELDEUTSCHLAND-AS, DE
