# https://chainz.cryptoid.info/ and whois results
# Lanacoin
IP Address|Subver|Version|ASN|BGP Prefix|CC|Registry|Allocated|AS Name
101.181.73.158|/Lana:1.0.0.1/|60001|1221|101.160.0.0/11|AU|apnic|2010-12-23|ASN-TELSTRA Telstra Corporation Ltd, AU
102.165.232.141|/Lana:1.0.0.1/|60001|37315|102.165.232.0/21|ZA|afrinic|2018-01-30|CipherWave, ZA
107.150.52.74|/Lana:1.0.0.1/|60001|33387|107.150.32.0/19|US|arin|2013-12-03|NOCIX, US
148.59.149.52|/Lana:1.0.0.1/|60001|396477|148.59.149.0/24|CA|arin|2017-08-01|DNSNETWORKS, CA
157.245.68.105|/Lana:1.0.0.1/|60001|14061|157.245.64.0/20|US|arin|2019-05-09|DIGITALOCEAN-ASN, US
159.65.206.24|/Lana:1.0.0.1/|60001|14061|159.65.192.0/20|US|arin|2017-10-24|DIGITALOCEAN-ASN, US
171.6.220.184|/Lana:1.0.0.1/|60001|45629|171.6.0.0/16|TH|apnic|2011-03-07|JASTEL-NETWORK-TH-AP JasTel Network International Gateway, TH
176.76.242.64|/Lana:1.0.0.1/|60001|3212|176.76.0.0/16|SI|ripencc|2011-06-15|TELEMACH Broadband Access & Carrier Services, SI
184.166.191.62|/Lana:1.0.0.1/|60001|33588|184.166.0.0/15|US|arin|2010-07-28|BRESNAN-33588, US
189.54.192.176|/Lana:1.0.0.1/|60001|28573|189.54.192.0/19|BR|lacnic|2007-07-30|CLARO S.A., BR
193.164.140.162|/Lana:1.0.0.1/|60001|41427|193.164.140.0/24|SI|ripencc|2006-08-18|MARC-NET_AS, SI
193.77.158.82|/Lana:1.0.0.1/|60001|5603|193.77.128.0/18|SI|ripencc|1993-09-01|SIOL-NET Telekom Slovenije d.d., SI
211.184.61.138|/Lana:1.0.0.1/|60001|4766|211.184.0.0/15|KR|apnic|2000-05-26|KIXS-AS-KR Korea Telecom, KR
212.85.163.232|/Lana:1.0.0.1/|60001|3212|212.85.160.0/19|SI|ripencc|2010-07-05|TELEMACH Broadband Access & Carrier Services, SI
213.253.91.202|/Lana:1.0.0.1/|60001|9119|213.253.64.0/19|SI|ripencc|2001-05-14|SOFTNET-AS Internet Service Provider in Slovenia and South Europe region, SI
24.132.202.61|/Lana:1.0.0.1/|60001|6830|24.132.128.0/17|NL|ripencc|2000-01-17|LIBERTYGLOBAL Liberty Global (formerly UPC Broadband Holding, aka AORTA), AT
24.7.88.54|/Lana:1.0.0.1/|60001|7922|24.0.0.0/12|US|arin|2003-10-06|COMCAST-7922, US
31.200.145.11|/Lana:1.0.0.1/|60001|13280|31.200.128.0/18|IE|ripencc|2011-04-28|H3G, IE
37.221.194.168|/Lana:1.0.0.1/|60001|197540|37.221.192.0/21|DE|ripencc|2012-04-10|NETCUP-AS netcup GmbH, DE
45.55.195.243|/Lana:1.0.0.1/|60001|14061|45.55.192.0/18|US|arin|2015-02-05|DIGITALOCEAN-ASN, US
46.101.235.143|/Lana:1.0.0.1/|60001|14061|46.101.128.0/17|NL|ripencc|2010-06-24|DIGITALOCEAN-ASN, US
46.19.9.246|/Lana:1.0.0.1/|60001|51790|46.19.8.0/23|SI|ripencc|2010-11-04|SIEL, SI
49.198.118.239|/Lana:1.0.0.1/|60001|4804|49.198.0.0/16|AU|apnic|2010-12-02|MPX-AS Microplex PTY LTD, AU
5.67.157.201|/Lana:1.0.0.1/|60001|5607|5.64.0.0/13|GB|ripencc|2012-06-11|BSKYB-BROADBAND-AS, GB
5.9.145.235|/Lana:1.0.0.1/|60001|24940|5.9.0.0/16|DE|ripencc|2012-04-25|HETZNER-AS, DE
51.38.57.53|/Lana:1.0.0.1/|60001|16276|51.38.0.0/16|FR|ripencc|1993-09-01|OVH, FR
52.188.58.31|/Lana:1.0.0.1/|60001|8075|52.160.0.0/11|US|arin|2015-11-24|MICROSOFT-CORP-MSN-AS-BLOCK, US
58.240.66.142|/Lana:1.0.0.1/|60001|4837|58.240.0.0/15|CN|apnic|2005-06-03|CHINA169-BACKBONE CHINA UNICOM China169 Backbone, CN
70.115.143.43|/Lana:1.0.0.1/|60001|11427|70.112.0.0/14|US|arin|2004-09-17|TWC-11427-TEXAS, US
74.62.185.1|/Lana:1.0.0.1/|60001|46292|74.62.185.0/24|US|arin|2006-04-07|MOJAVEWIFI-COM-CA-1, US
76.108.238.213|/Lana:1.0.0.1/|60001|7922|76.96.0.0/11|US|arin|2007-01-02|COMCAST-7922, US
81.93.71.42|/Lana:1.0.0.1/|60001|25144|81.93.64.0/19|BA|ripencc|2002-08-07|TELEKOM-SRPSKE-AS Kralja Petra I Karadjordjevica 61a, BA
82.132.240.18|/Lana:1.0.0.1/|60001|35228|82.132.240.0/22|GB|ripencc|2003-08-14|O2BROADBAND, GB
83.19.98.29|/Lana:1.0.0.1/|60001|5617|83.16.0.0/13|PL|ripencc|2003-12-03|TPNET, PL
83.255.201.200|/Lana:1.0.0.1/|60001|39651|83.255.192.0/20|SE|ripencc|2004-03-04|COMHEM-SWEDEN, SE
84.162.163.12|/Lana:1.0.0.1/|60001|3320|84.128.0.0/10|DE|ripencc|2004-03-10|DTAG Internet service provider operations, DE
86.133.158.3|/Lana:1.0.0.1/|60001|2856|86.128.0.0/12|GB|ripencc|2005-02-07|BT-UK-AS BTnet UK Regional network, GB
86.86.168.91|/Lana:1.0.0.1/|60001|1136|86.80.0.0/12|NL|ripencc|2005-03-23|KPN KPN National, EU
87.205.3.214|/Lana:1.0.0.1/|60001|12741|87.204.0.0/15|PL|ripencc|2005-07-06|AS-NETIA Warszawa 02-822, PL
89.142.77.172|/Lana:1.0.0.1/|60001|5603|89.142.64.0/18|SI|ripencc|2006-03-03|SIOL-NET Telekom Slovenije d.d., SI
89.212.11.158|/Lana:1.0.0.1/|60001|34779|89.212.0.0/18|SI|ripencc|2006-05-03|T-2-AS AS set propagated by T-2, d.o.o., SI
89.212.118.169|/Lana:1.0.0.1/|60001|34779|89.212.64.0/18|SI|ripencc|2006-05-03|T-2-AS AS set propagated by T-2, d.o.o., SI
89.212.21.117|/Lana:1.0.0.1/|60001|34779|89.212.0.0/18|SI|ripencc|2006-05-03|T-2-AS AS set propagated by T-2, d.o.o., SI
90.157.208.70|/Lana:1.0.0.1/|60001|21283|90.157.128.0/17|SI|ripencc|2006-11-17|A1SI-AS A1 Slovenija, SI
90.188.9.141|/Lana:1.0.0.1/|60001|12846|90.188.0.0/20|RU|ripencc|2006-10-18|Barnaul, Russia, RU
91.114.110.206|/Lana:1.0.0.1/|60001|8447|91.112.0.0/14|AT|ripencc|2006-09-04|TELEKOM-AT A1 Telekom Austria AG, AT
92.37.94.135|/Lana:1.0.0.1/|60001|21283|92.37.0.0/17|SI|ripencc|2008-01-14|A1SI-AS A1 Slovenija, SI
93.103.20.240|/Lana:1.0.0.1/|60001|34779|93.103.0.0/19|SI|ripencc|2008-03-14|T-2-AS AS set propagated by T-2, d.o.o., SI
95.111.234.166|/Lana:1.0.0.1/|60001|51167|95.111.234.0/23|DE|ripencc|2008-12-30|CONTABO, DE
95.217.77.209|/Lana:1.0.0.1/|60001|24940|95.217.0.0/16|DE|ripencc|2009-02-24|HETZNER-AS, DE
95.90.198.164|/Lana:1.0.0.1/|60001|31334|95.90.198.0/23|DE|ripencc|2008-12-15|KABELDEUTSCHLAND-AS, DE
97.73.244.10|/Lana:1.0.0.1/|60001|6621|97.73.244.0/22|US|arin|2007-08-03|HNS-DIRECPC, US
