# https://chainz.cryptoid.info/ and whois results
# Lanacoin
IP Address|Subver|Version|ASN|BGP Prefix|CC|Registry|Allocated|AS Name
101.181.128.33|/Lana:1.0.0.1/|60001|1221|101.160.0.0/11|AU|apnic|2010-12-23|ASN-TELSTRA Telstra Corporation Ltd, AU
107.150.52.74|/Lana:1.0.0.1/|60001|33387|107.150.32.0/19|US|arin|2013-12-03|NOCIX, US
151.55.159.86|/Lana:1.0.0.1/|60001|1267|151.55.0.0/16|IT|ripencc|1991-05-13|ASN-WINDTRE IUNET, EU
156.155.176.25|/Lana:1.0.0.1/|60001|37611|156.155.0.0/16|ZA|afrinic|2017-03-03|Afrihost, ZA
159.65.206.24|/Lana:1.0.0.1/|60001|14061|159.65.192.0/20|US|arin|2017-10-24|DIGITALOCEAN-ASN, US
178.46.55.34|/Lana:1.0.0.1/|60001|12389|178.46.32.0/19|RU|ripencc|2010-02-26|ROSTELECOM-AS, RU
180.191.168.137|/Lana:1.0.0.1/|60001|132199|180.191.168.0/22|PH|apnic|2009-09-17|GLOBE-MOBILE-5TH-GEN-AS Globe Telecom Inc., PH
185.22.143.47|/Lana:1.0.0.1/|60001|60294|185.22.143.0/24|DE|ripencc|2013-03-28|DE-DGW Deutsche Glasfaser Wholesale Internet, DE
187.107.88.31|/Lana:1.0.0.1/|60001|28573|187.107.64.0/19|BR|lacnic|2009-11-18|CLARO S.A., BR
188.137.29.104|/Lana:1.0.0.1/|60001|13000|188.137.0.0/17|PL|ripencc|2009-05-06|LEON-AS, PL
188.198.132.132|/Lana:1.0.0.1/|60001|5603|188.196.0.0/14|SI|ripencc|2011-01-24|SIOL-NET Telekom Slovenije d.d., SI
193.164.140.162|/Lana:1.0.0.1/|60001|41427|193.164.140.0/24|SI|ripencc|2006-08-18|MARC-NET_AS, SI
193.77.158.82|/Lana:1.0.0.1/|60001|5603|193.77.128.0/18|SI|ripencc|1993-09-01|SIOL-NET Telekom Slovenije d.d., SI
211.184.61.138|/Lana:1.0.0.1/|60001|4766|211.184.0.0/15|KR|apnic|2000-05-26|KIXS-AS-KR Korea Telecom, KR
212.85.163.232|/Lana:1.0.0.1/|60001|3212|212.85.160.0/19|SI|ripencc|2010-07-05|TELEMACH Broadband Access & Carrier Services, SI
24.132.202.61|/Lana:1.0.0.1/|60001|6830|24.132.128.0/17|NL|ripencc|2000-01-17|LGI-UPC formerly known as UPC Broadband Holding B.V., AT
24.7.88.54|/Lana:1.0.0.1/|60001|7922|24.0.0.0/12|US|arin|2003-10-06|COMCAST-7922, US
31.10.129.32|/Lana:1.0.0.1/|60001|6830|31.10.128.0/18|CH|ripencc|2011-04-14|LGI-UPC formerly known as UPC Broadband Holding B.V., AT
31.51.48.205|/Lana:1.0.0.1/|60001|2856|31.48.0.0/13|GB|ripencc|2010-12-31|BT-UK-AS BTnet UK Regional network, GB
37.221.194.168|/Lana:1.0.0.1/|60001|197540|37.221.192.0/21|DE|ripencc|2012-04-10|NETCUP-AS netcup GmbH, DE
37.79.79.6|/Lana:1.0.0.1/|60001|12389|37.79.64.0/19|RU|ripencc|2012-01-31|ROSTELECOM-AS, RU
45.55.195.243|/Lana:1.0.0.1/|60001|14061|45.55.192.0/18|US|arin|2015-02-05|DIGITALOCEAN-ASN, US
46.101.235.143|/Lana:1.0.0.1/|60001|14061|46.101.128.0/17|NL|ripencc|2010-06-24|DIGITALOCEAN-ASN, US
5.62.41.144|/Lana:1.0.0.1/|60001|198605|5.62.40.0/23|GB|ripencc|2012-06-08|AVAST-AS-DC, CZ
5.9.145.235|/Lana:1.0.0.1/|60001|24940|5.9.0.0/16|DE|ripencc|2012-04-25|HETZNER-AS, DE
51.38.57.53|/Lana:1.0.0.1/|60001|16276|51.38.0.0/16|FR|ripencc|1993-09-01|OVH, FR
58.240.66.142|/Lana:1.0.0.1/|60001|4837|58.240.0.0/15|CN|apnic|2005-06-03|CHINA169-BACKBONE CHINA UNICOM China169 Backbone, CN
69.157.133.152|/Lana:1.0.0.1/|60001|577|69.157.0.0/16|CA|arin|2003-11-25|BACOM, CA
74.128.220.224|/Lana:1.0.0.1/|60001|10796|74.128.0.0/12|US|arin|2006-04-07|TWC-10796-MIDWEST, US
74.62.185.1|/Lana:1.0.0.1/|60001|46292|74.62.185.0/24|US|arin|2006-04-07|MOJAVEWIFI-COM-CA-1, US
80.233.86.167|/Lana:1.0.0.1/|60001|13280|80.233.80.0/20|IE|ripencc|2009-12-09|H3G, IE
80.51.58.239|/Lana:1.0.0.1/|60001|5617|80.48.0.0/14|PL|ripencc|2001-12-18|TPNET, PL
81.93.71.42|/Lana:1.0.0.1/|60001|25144|81.93.64.0/19|BA|ripencc|2002-08-07|TELEKOM-SRPSKE-AS Kralja Petra I Karadjordjevica 61a, BA
82.161.34.149|/Lana:1.0.0.1/|60001|3265|82.161.0.0/16|NL|ripencc|2003-07-14|XS4ALL-NL Amsterdam, NL
83.255.201.200|/Lana:1.0.0.1/|60001|39651|83.255.192.0/20|SE|ripencc|2004-03-04|COMHEM-SWEDEN, SE
84.162.171.27|/Lana:1.0.0.1/|60001|3320|84.128.0.0/10|DE|ripencc|2004-03-10|DTAG Internet service provider operations, DE
86.86.168.91|/Lana:1.0.0.1/|60001|1136|86.80.0.0/12|NL|ripencc|2005-03-23|KPN KPN National, EU
87.205.3.214|/Lana:1.0.0.1/|60001|12741|87.204.0.0/15|PL|ripencc|2005-07-06|AS-NETIA Warszawa 02-822, PL
89.142.75.60|/Lana:1.0.0.1/|60001|5603|89.142.0.0/16|SI|ripencc|2006-03-03|SIOL-NET Telekom Slovenije d.d., SI
89.212.11.158|/Lana:1.0.0.1/|60001|34779|89.212.0.0/18|SI|ripencc|2006-05-03|T-2-AS AS set propagated by T-2, d.o.o., SI
89.212.118.169|/Lana:1.0.0.1/|60001|34779|89.212.64.0/18|SI|ripencc|2006-05-03|T-2-AS AS set propagated by T-2, d.o.o., SI
89.212.21.117|/Lana:1.0.0.1/|60001|34779|89.212.0.0/18|SI|ripencc|2006-05-03|T-2-AS AS set propagated by T-2, d.o.o., SI
90.157.242.29|/Lana:1.0.0.1/|60001|8591|90.157.128.0/17|SI|ripencc|2006-11-17|A1SLOVENIJA http://www.A1.si/, SI
92.37.76.239|/Lana:1.0.0.1/|60001|8591|92.37.0.0/17|SI|ripencc|2008-01-14|A1SLOVENIJA http://www.A1.si/, SI
93.103.146.102|/Lana:1.0.0.1/|60001|34779|93.103.128.0/19|SI|ripencc|2008-03-14|T-2-AS AS set propagated by T-2, d.o.o., SI
93.103.20.240|/Lana:1.0.0.1/|60001|34779|93.103.0.0/19|SI|ripencc|2008-03-14|T-2-AS AS set propagated by T-2, d.o.o., SI
94.134.92.177|/Lana:1.0.0.1/|60001|8881|94.134.92.0/24|DE|ripencc|2008-08-07|VERSATEL, DE
95.111.234.166|/Lana:1.0.0.1/|60001|51167|95.111.234.0/23|DE|ripencc|2008-12-30|CONTABO, DE
95.217.77.209|/Lana:1.0.0.1/|60001|24940|95.217.0.0/16|DE|ripencc|2009-02-24|HETZNER-AS, DE
95.90.198.164|/Lana:1.0.0.1/|60001|31334|95.90.198.0/23|DE|ripencc|2008-12-15|KABELDEUTSCHLAND-AS, DE
96.244.102.125|/Lana:1.0.0.1/|60001|701|96.244.0.0/16|US|arin|2006-12-29|UUNET, US
97.73.244.252|/Lana:1.0.0.1/|60001|6621|97.73.244.0/22|US|arin|2007-08-03|HNS-DIRECPC, US
