# https://chainz.cryptoid.info/ and whois results
# Lanacoin
IP Address|Subver|Version|ASN|BGP Prefix|CC|Registry|Allocated|AS Name
101.181.46.99|/Lana:1.0.0.1/|60001|1221|101.160.0.0/11|AU|apnic|2010-12-23|ASN-TELSTRA Telstra Corporation Ltd, AU
107.150.52.74|/Lana:1.0.0.1/|60001|33387|107.150.32.0/19|US|arin|2013-12-03|NOCIX, US
114.79.55.27|???|0|18004|114.79.55.0/24|ID|apnic|2009-12-09|WIRELESSNET-ID PT WIRELESS INDONESIA ( WIN ), ID
148.59.149.52|/Lana:1.0.0.1/|60001|396477|148.59.149.0/24|CA|arin|2017-08-01|DNSNETWORKS, CA
151.55.130.23|/Lana:1.0.0.1/|60001|1267|151.55.0.0/16|IT|ripencc|1991-05-13|ASN-WINDTRE IUNET, EU
159.65.206.24|/Lana:1.0.0.1/|60001|14061|159.65.192.0/20|US|arin|2017-10-24|DIGITALOCEAN-ASN, US
176.100.195.4|/Lana:1.0.0.1/|60001|198187|176.100.192.0/21|PL|ripencc|2011-10-31|STUDIOWIK-AS ul. Zakopiaska 6B, PL
176.59.194.212|/Lana:1.0.0.1/|60001|48190|176.59.192.0/19|RU|ripencc|2011-06-06|T2-EKATERINBURG-AS Tele2 Russia Network, RU
176.59.201.195|/Lana:1.0.0.1/|60001|48190|176.59.192.0/19|RU|ripencc|2011-06-06|T2-EKATERINBURG-AS Tele2 Russia Network, RU
185.22.143.47|/Lana:1.0.0.1/|60001|60294|185.22.143.0/24|DE|ripencc|2013-03-28|DE-DGW Deutsche Glasfaser Wholesale Internet, DE
189.54.192.176|/Lana:1.0.0.1/|60001|28573|189.54.192.0/19|BR|lacnic|2007-07-30|CLARO S.A., BR
193.164.140.162|/Lana:1.0.0.1/|60001|41427|193.164.140.0/24|SI|ripencc|2006-08-18|MARC-NET_AS, SI
193.77.158.82|/Lana:1.0.0.1/|60001|5603|193.77.128.0/18|SI|ripencc|1993-09-01|SIOL-NET Telekom Slovenije d.d., SI
211.184.61.138|/Lana:1.0.0.1/|60001|4766|211.184.0.0/15|KR|apnic|2000-05-26|KIXS-AS-KR Korea Telecom, KR
212.13.174.253|/Lana:1.0.0.1/|60001|9198|212.13.160.0/19|KZ|ripencc|1998-05-19|KAZTELECOM-AS, KZ
212.85.163.232|/Lana:1.0.0.1/|60001|3212|212.85.160.0/19|SI|ripencc|2010-07-05|TELEMACH Broadband Access & Carrier Services, SI
24.132.202.61|/Lana:1.0.0.1/|60001|6830|24.132.128.0/17|NL|ripencc|2000-01-17|LIBERTYGLOBAL Liberty Global (formerly UPC Broadband Holding, aka AORTA), AT
24.7.88.54|/Lana:1.0.0.1/|60001|7922|24.0.0.0/12|US|arin|2003-10-06|COMCAST-7922, US
31.200.189.48|/Lana:1.0.0.1/|60001|13280|31.200.128.0/18|IE|ripencc|2011-04-28|H3G, IE
37.221.194.168|/Lana:1.0.0.1/|60001|197540|37.221.192.0/21|DE|ripencc|2012-04-10|NETCUP-AS netcup GmbH, DE
45.55.195.243|/Lana:1.0.0.1/|60001|14061|45.55.192.0/18|US|arin|2015-02-05|DIGITALOCEAN-ASN, US
46.101.235.143|/Lana:1.0.0.1/|60001|14061|46.101.128.0/17|NL|ripencc|2010-06-24|DIGITALOCEAN-ASN, US
46.19.9.246|/Lana:1.0.0.1/|60001|51790|46.19.8.0/23|SI|ripencc|2010-11-04|SIEL, SI
5.227.14.95|/Lana:1.0.0.1/|60001|8580|5.227.0.0/17|RU|ripencc|2012-09-07|SANDY Nizhny Novgorod, Russia, RU
5.232.229.72|/Lana:1.0.0.1/|60001|58224|5.232.224.0/19|IR|ripencc|2012-09-07|TCI, IR
5.9.145.235|/Lana:1.0.0.1/|60001|24940|5.9.0.0/16|DE|ripencc|2012-04-25|HETZNER-AS, DE
51.38.57.53|/Lana:1.0.0.1/|60001|16276|51.38.0.0/16|FR|ripencc|1993-09-01|OVH, FR
58.240.66.142|/Lana:1.0.0.1/|60001|4837|58.240.0.0/15|CN|apnic|2005-06-03|CHINA169-BACKBONE CHINA UNICOM China169 Backbone, CN
71.121.223.146|/Lana:1.0.0.1/|60001|701|71.121.128.0/17|US|arin|2005-01-18|UUNET, US
74.128.220.224|/Lana:1.0.0.1/|60001|10796|74.128.0.0/12|US|arin|2006-04-07|TWC-10796-MIDWEST, US
74.62.185.1|/Lana:1.0.0.1/|60001|46292|74.62.185.0/24|US|arin|2006-04-07|MOJAVEWIFI-COM-CA-1, US
76.108.238.213|/Lana:1.0.0.1/|60001|7922|76.96.0.0/11|US|arin|2007-01-02|COMCAST-7922, US
81.93.71.42|/Lana:1.0.0.1/|60001|25144|81.93.64.0/19|BA|ripencc|2002-08-07|TELEKOM-SRPSKE-AS Kralja Petra I Karadjordjevica 61a, BA
83.255.201.200|/Lana:1.0.0.1/|60001|39651|83.255.192.0/20|SE|ripencc|2004-03-04|COMHEM-SWEDEN, SE
83.26.157.198|/Lana:1.0.0.1/|60001|5617|83.24.0.0/13|PL|ripencc|2003-12-03|TPNET, PL
84.162.162.180|/Lana:1.0.0.1/|60001|3320|84.128.0.0/10|DE|ripencc|2004-03-10|DTAG Internet service provider operations, DE
84.227.64.119|/Lana:1.0.0.1/|60001|6730|84.226.0.0/15|CH|ripencc|2004-07-02|SUNRISE, CH
84.255.249.233|/Lana:1.0.0.1/|60001|34779|84.255.192.0/18|SI|ripencc|2004-12-14|T-2-AS AS set propagated by T-2, d.o.o., SI
86.131.126.246|/Lana:1.0.0.1/|60001|2856|86.128.0.0/12|GB|ripencc|2005-02-07|BT-UK-AS BTnet UK Regional network, GB
86.152.110.198|/Lana:1.0.0.1/|60001|2856|86.128.0.0/11|GB|ripencc|2005-02-07|BT-UK-AS BTnet UK Regional network, GB
86.86.168.91|/Lana:1.0.0.1/|60001|1136|86.80.0.0/12|NL|ripencc|2005-03-23|KPN KPN National, EU
87.205.3.214|/Lana:1.0.0.1/|60001|12741|87.204.0.0/15|PL|ripencc|2005-07-06|AS-NETIA Warszawa 02-822, PL
89.142.75.60|/Lana:1.0.0.1/|60001|5603|89.142.64.0/18|SI|ripencc|2006-03-03|SIOL-NET Telekom Slovenije d.d., SI
89.155.24.137|/Lana:1.0.0.1/|60001|2860|89.155.0.0/18|PT|ripencc|2006-02-07|NOS_COMUNICACOES, PT
89.212.118.169|/Lana:1.0.0.1/|60001|34779|89.212.64.0/18|SI|ripencc|2006-05-03|T-2-AS AS set propagated by T-2, d.o.o., SI
89.212.21.117|/Lana:1.0.0.1/|60001|34779|89.212.0.0/18|SI|ripencc|2006-05-03|T-2-AS AS set propagated by T-2, d.o.o., SI
90.157.208.70|/Lana:1.0.0.1/|60001|8591|90.157.128.0/17|SI|ripencc|2006-11-17|A1SLOVENIJA http://www.A1.si/, SI
90.157.214.244|/Lana:1.0.0.1/|60001|8591|90.157.128.0/17|SI|ripencc|2006-11-17|A1SLOVENIJA http://www.A1.si/, SI
92.251.187.238|/Lana:1.0.0.1/|60001|13280|92.251.128.0/17|IE|ripencc|2007-11-23|H3G, IE
92.37.80.159|/Lana:1.0.0.1/|60001|8591|92.37.0.0/17|SI|ripencc|2008-01-14|A1SLOVENIJA http://www.A1.si/, SI
93.103.146.102|/Lana:1.0.0.1/|60001|34779|93.103.128.0/19|SI|ripencc|2008-03-14|T-2-AS AS set propagated by T-2, d.o.o., SI
93.103.20.240|/Lana:1.0.0.1/|60001|34779|93.103.0.0/19|SI|ripencc|2008-03-14|T-2-AS AS set propagated by T-2, d.o.o., SI
95.111.234.166|/Lana:1.0.0.1/|60001|51167|95.111.234.0/23|DE|ripencc|2008-12-30|CONTABO, DE
95.217.77.209|/Lana:1.0.0.1/|60001|24940|95.217.0.0/16|DE|ripencc|2009-02-24|HETZNER-AS, DE
95.90.198.164|/Lana:1.0.0.1/|60001|31334|95.90.198.0/23|DE|ripencc|2008-12-15|KABELDEUTSCHLAND-AS, DE
97.73.244.252|/Lana:1.0.0.1/|60001|6621|97.73.244.0/22|US|arin|2007-08-03|HNS-DIRECPC, US
