# https://chainz.cryptoid.info/ and whois results
# Lanacoin
IP Address|Subver|Version|ASN|BGP Prefix|CC|Registry|Allocated|AS Name
101.182.46.1|/Lana:1.0.0.1/|60001|1221|101.160.0.0/11|AU|apnic|2010-12-23|ASN-TELSTRA Telstra Corporation Ltd, AU
107.150.52.74|/Lana:1.0.0.1/|60001|33387|107.150.32.0/19|US|arin|2013-12-03|NOCIX, US
109.252.66.90|/Lana:1.0.0.1/|60001|25513|109.252.0.0/16|RU|ripencc|2009-12-07|ASN-MGTS-USPD, RU
142.202.79.1|/Lana:1.0.0.1/|60001|46292|142.202.79.0/24|US|arin|2019-12-30|MOJAVEWIFI-COM-CA-1, US
151.55.57.153|/Lana:1.0.0.1/|60001|1267|151.55.0.0/16|IT|ripencc|1991-05-13|ASN-WINDTRE IUNET, IT
159.65.206.24|/Lana:1.0.0.1/|60001|14061|159.65.192.0/20|US|arin|2017-10-24|DIGITALOCEAN-ASN, US
178.234.188.228|/Lana:1.0.0.1/|60001|12389|178.234.188.0/22|RU|ripencc|2010-05-10|ROSTELECOM-AS, RU
178.58.241.195|/Lana:1.0.0.1/|60001|5603|178.58.128.0/17|SI|ripencc|2010-02-05|SIOL-NET Telekom Slovenije d.d., SI
185.82.202.162|/Lana:1.0.0.1/|60001|60117|185.82.202.0/24|AE|ripencc|2014-12-31|HS, AE
188.137.29.104|/Lana:1.0.0.1/|60001|13000|188.137.0.0/17|PL|ripencc|2009-05-06|LEON-AS, PL
188.230.137.52|/Lana:1.0.0.1/|60001|34779|188.230.128.0/19|SI|ripencc|2009-07-30|T-2-AS AS set propagated by T-2, d.o.o., SI
188.82.123.247|/Lana:1.0.0.1/|60001|3243|188.80.0.0/14|PT|ripencc|2009-03-25|MEO-RESIDENCIAL, PT
193.138.39.158|/Lana:1.0.0.1/|60001|34779|193.138.32.0/20|SI|ripencc|1995-07-13|T-2-AS AS set propagated by T-2, d.o.o., SI
193.164.140.162|/Lana:1.0.0.1/|60001|41427|193.164.140.0/24|SI|ripencc|2006-08-18|MARC-NET_AS, SI
193.77.158.82|/Lana:1.0.0.1/|60001|5603|193.77.128.0/18|SI|ripencc|1993-09-01|SIOL-NET Telekom Slovenije d.d., SI
193.95.249.3|/Lana:1.0.0.1/|60001|5603|193.95.224.0/19|SI|ripencc|1994-02-15|SIOL-NET Telekom Slovenije d.d., SI
212.85.163.232|/Lana:1.0.0.1/|60001|3212|212.85.160.0/19|SI|ripencc|2010-07-05|TELEMACH Broadband Access & Carrier Services, SI
24.132.202.61|/Lana:1.0.0.1/|60001|6830|24.132.128.0/17|NL|ripencc|2000-01-17|LIBERTYGLOBAL Liberty Global (formerly UPC Broadband Holding, aka AORTA), NL
37.221.194.168|/Lana:1.0.0.1/|60001|197540|37.221.192.0/21|DE|ripencc|2012-04-10|NETCUP-AS netcup GmbH, DE
37.233.101.154|/Lana:1.0.0.1/|60001|198717|37.233.96.0/20|PL|ripencc|2012-04-13|TECHSTORAGE, PL
46.101.235.143|/Lana:1.0.0.1/|60001|14061|46.101.128.0/17|US|ripencc|2010-06-24|DIGITALOCEAN-ASN, US
5.9.145.235|/Lana:1.0.0.1/|60001|24940|5.9.0.0/16|DE|ripencc|2012-04-25|HETZNER-AS, DE
51.38.57.53|/Lana:1.0.0.1/|60001|16276|51.38.0.0/16|FR|ripencc|1993-09-01|OVH, FR
66.55.78.57|/Lana:1.0.0.1/|60001|8100|66.55.78.0/24|US|arin|2009-10-08|ASN-QUADRANET-GLOBAL, US
71.205.83.216|/Lana:1.0.0.1/|60001|7922|71.192.0.0/12|US|arin|2005-07-27|COMCAST-7922, US
76.108.238.213|/Lana:1.0.0.1/|60001|7922|76.96.0.0/11|US|arin|2007-01-02|COMCAST-7922, US
77.168.78.60|/Lana:1.0.0.1/|60001|1136|77.168.0.0/14|NL|ripencc|2006-11-02|KPN KPN National, NL
77.38.50.61|/Lana:1.0.0.1/|60001|3212|77.38.0.0/17|SI|ripencc|2007-03-22|TELEMACH Broadband Access & Carrier Services, SI
77.94.144.60|/Lana:1.0.0.1/|60001|43061|77.94.128.0/19|SI|ripencc|2007-05-31|SI-STELKOM, SI
77.95.36.185|/Lana:1.0.0.1/|60001|34119|77.95.32.0/21|GB|ripencc|2007-05-29|WILDCARD-AS Wildcard UK Limited, GB
80.233.17.217|/Lana:1.0.0.1/|60001|13280|80.233.16.0/20|IE|ripencc|2009-12-09|H3G, IE
81.93.71.42|/Lana:1.0.0.1/|60001|25144|81.93.64.0/19|BA|ripencc|2002-08-07|TELEKOM-SRPSKE-AS Kralja Petra I Karadjordjevica 61a, BA
82.161.34.149|/Lana:1.0.0.1/|60001|3265|82.161.0.0/16|NL|ripencc|2003-07-14|XS4ALL-NL Amsterdam, NL
83.255.201.200|/Lana:1.0.0.1/|60001|39651|83.248.0.0/13|SE|ripencc|2004-03-04|COMHEM-SWEDEN, SE
84.162.160.3|/Lana:1.0.0.1/|60001|3320|84.128.0.0/10|DE|ripencc|2004-03-10|DTAG Internet service provider operations, DE
84.162.161.45|/Lana:1.0.0.1/|60001|3320|84.128.0.0/10|DE|ripencc|2004-03-10|DTAG Internet service provider operations, DE
84.162.164.223|/Lana:1.0.0.1/|60001|3320|84.128.0.0/10|DE|ripencc|2004-03-10|DTAG Internet service provider operations, DE
85.15.179.171|/Lana:1.0.0.1/|60001|12389|85.15.128.0/18|RU|ripencc|2005-04-26|ROSTELECOM-AS, RU
86.190.113.204|/Lana:1.0.0.1/|60001|2856|86.128.0.0/10|GB|ripencc|2005-02-07|BT-UK-AS BTnet UK Regional network, GB
86.22.118.150|/Lana:1.0.0.1/|60001|5089|86.22.0.0/15|GB|ripencc|2005-03-29|NTL, GB
86.86.168.91|/Lana:1.0.0.1/|60001|1136|86.80.0.0/12|NL|ripencc|2005-03-23|KPN KPN National, NL
87.205.3.214|/Lana:1.0.0.1/|60001|12741|87.204.0.0/15|PL|ripencc|2005-07-06|AS-NETIA Warszawa 02-822, PL
89.142.65.243|/Lana:1.0.0.1/|60001|5603|89.142.64.0/18|SI|ripencc|2006-03-03|SIOL-NET Telekom Slovenije d.d., SI
89.212.11.158|/Lana:1.0.0.1/|60001|34779|89.212.0.0/18|SI|ripencc|2006-05-03|T-2-AS AS set propagated by T-2, d.o.o., SI
89.212.118.169|/Lana:1.0.0.1/|60001|34779|89.212.64.0/18|SI|ripencc|2006-05-03|T-2-AS AS set propagated by T-2, d.o.o., SI
89.212.21.117|/Lana:1.0.0.1/|60001|34779|89.212.0.0/18|SI|ripencc|2006-05-03|T-2-AS AS set propagated by T-2, d.o.o., SI
91.206.16.214|/Lana:1.0.0.1/|60001|13259|91.206.16.0/23|RU|ripencc|2008-06-09|DELTA-TELESYSTEMS-AS, RU
92.37.25.225|/Lana:1.0.0.1/|60001|21283|92.37.0.0/17|SI|ripencc|2008-01-14|A1SI-AS A1 Slovenija, SI
92.37.81.253|/Lana:1.0.0.1/|60001|21283|92.37.0.0/17|SI|ripencc|2008-01-14|A1SI-AS A1 Slovenija, SI
93.103.20.240|/Lana:1.0.0.1/|60001|34779|93.103.0.0/19|SI|ripencc|2008-03-14|T-2-AS AS set propagated by T-2, d.o.o., SI
94.23.201.20|/Lana:1.0.0.1/|60001|16276|94.23.0.0/16|FR|ripencc|2008-07-15|OVH, FR
94.50.97.124|/Lana:1.0.0.1/|60001|12389|94.50.96.0/20|RU|ripencc|2008-05-29|ROSTELECOM-AS, RU
95.217.77.209|/Lana:1.0.0.1/|60001|24940|95.217.0.0/16|DE|ripencc|2009-02-24|HETZNER-AS, DE
95.90.198.134|/Lana:1.0.0.1/|60001|3209|95.88.0.0/14|DE|ripencc|2008-12-15|VODANET International IP-Backbone of Vodafone, DE
97.73.244.119|/Lana:1.0.0.1/|60001|6621|97.73.244.0/22|US|arin|2007-08-03|HNS-DIRECPC, US
