# https://chainz.cryptoid.info/ and whois results
# Lanacoin
IP Address|Subver|Version|ASN|BGP Prefix|CC|Registry|Allocated|AS Name
101.181.73.158|/Lana:1.0.0.1/|60001|1221|101.160.0.0/11|AU|apnic|2010-12-23|ASN-TELSTRA Telstra Corporation Ltd, AU
102.165.232.141|/Lana:1.0.0.1/|60001|37315|102.165.232.0/21|ZA|afrinic|2018-01-30|CipherWave, ZA
107.150.52.74|/Lana:1.0.0.1/|60001|33387|107.150.32.0/19|US|arin|2013-12-03|NOCIX, US
136.24.44.100|/Lana:1.0.0.1/|60001|19165|136.24.0.0/16|US|arin|2016-10-31|WEBPASS, US
148.59.149.52|/Lana:1.0.0.1/|60001|396477|148.59.149.0/24|CA|arin|2017-08-01|DNSNETWORKS, CA
151.55.150.251|/Lana:1.0.0.1/|60001|1267|151.55.0.0/16|IT|ripencc|1991-05-13|ASN-WINDTRE IUNET, EU
159.65.206.24|/Lana:1.0.0.1/|60001|14061|159.65.192.0/20|US|arin|2017-10-24|DIGITALOCEAN-ASN, US
175.36.164.21|/Lana:1.0.0.1/|60001|4804|175.36.0.0/16|AU|apnic|2009-12-08|MPX-AS Microplex PTY LTD, AU
178.58.95.47|/Lana:1.0.0.1/|60001|5603|178.58.0.0/17|SI|ripencc|2010-02-05|SIOL-NET Telekom Slovenije d.d., SI
185.82.202.162|/Lana:1.0.0.1/|60001|60117|185.82.202.0/24|NL|ripencc|2014-12-31|HS, AE
188.197.152.204|/Lana:1.0.0.1/|60001|5603|188.197.0.0/16|SI|ripencc|2011-01-24|SIOL-NET Telekom Slovenije d.d., SI
188.244.142.63|/Lana:1.0.0.1/|60001|15774|188.244.142.0/24|RU|ripencc|2011-01-11|TTK-RTL Retail, RU
189.54.192.176|/Lana:1.0.0.1/|60001|28573|189.54.192.0/19|BR|lacnic|2007-07-30|CLARO S.A., BR
193.138.39.158|/Lana:1.0.0.1/|60001|34779|193.138.32.0/20|SI|ripencc|1995-07-13|T-2-AS AS set propagated by T-2, d.o.o., SI
193.164.140.162|/Lana:1.0.0.1/|60001|41427|193.164.140.0/24|SI|ripencc|2006-08-18|MARC-NET_AS, SI
193.77.158.82|/Lana:1.0.0.1/|60001|5603|193.77.128.0/18|SI|ripencc|1993-09-01|SIOL-NET Telekom Slovenije d.d., SI
211.184.61.138|/Lana:1.0.0.1/|60001|4766|211.184.0.0/15|KR|apnic|2000-05-26|KIXS-AS-KR Korea Telecom, KR
212.85.163.232|/Lana:1.0.0.1/|60001|3212|212.85.160.0/19|SI|ripencc|2010-07-05|TELEMACH Broadband Access & Carrier Services, SI
24.132.202.61|/Lana:1.0.0.1/|60001|6830|24.132.128.0/17|NL|ripencc|2000-01-17|LIBERTYGLOBAL Liberty Global (formerly UPC Broadband Holding, aka AORTA), AT
24.7.88.54|/Lana:1.0.0.1/|60001|7922|24.0.0.0/12|US|arin|2003-10-06|COMCAST-7922, US
37.221.194.168|/Lana:1.0.0.1/|60001|197540|37.221.192.0/21|DE|ripencc|2012-04-10|NETCUP-AS netcup GmbH, DE
45.55.195.243|/Lana:1.0.0.1/|60001|14061|45.55.192.0/18|US|arin|2015-02-05|DIGITALOCEAN-ASN, US
46.101.235.143|/Lana:1.0.0.1/|60001|14061|46.101.128.0/17|NL|ripencc|2010-06-24|DIGITALOCEAN-ASN, US
46.19.9.246|/Lana:1.0.0.1/|60001|51790|46.19.8.0/23|SI|ripencc|2010-11-04|SIEL, SI
49.198.118.239|/Lana:1.0.0.1/|60001|4804|49.198.0.0/16|AU|apnic|2010-12-02|MPX-AS Microplex PTY LTD, AU
5.9.145.235|/Lana:1.0.0.1/|60001|24940|5.9.0.0/16|DE|ripencc|2012-04-25|HETZNER-AS, DE
51.38.57.53|/Lana:1.0.0.1/|60001|16276|51.38.0.0/16|FR|ripencc|1993-09-01|OVH, FR
58.240.66.142|/Lana:1.0.0.1/|60001|4837|58.240.0.0/15|CN|apnic|2005-06-03|CHINA169-BACKBONE CHINA UNICOM China169 Backbone, CN
74.62.185.1|/Lana:1.0.0.1/|60001|46292|74.62.185.0/24|US|arin|2006-04-07|MOJAVEWIFI-COM-CA-1, US
81.93.71.42|/Lana:1.0.0.1/|60001|25144|81.93.64.0/19|BA|ripencc|2002-08-07|TELEKOM-SRPSKE-AS Kralja Petra I Karadjordjevica 61a, BA
83.255.201.200|/Lana:1.0.0.1/|60001|39651|83.255.192.0/20|SE|ripencc|2004-03-04|COMHEM-SWEDEN, SE
84.162.161.220|/Lana:1.0.0.1/|60001|3320|84.128.0.0/10|DE|ripencc|2004-03-10|DTAG Internet service provider operations, DE
84.162.163.12|/Lana:1.0.0.1/|60001|3320|84.128.0.0/10|DE|ripencc|2004-03-10|DTAG Internet service provider operations, DE
86.152.7.56|/Lana:1.0.0.1/|60001|2856|86.128.0.0/11|GB|ripencc|2005-02-07|BT-UK-AS BTnet UK Regional network, GB
86.21.59.11|/Lana:1.0.0.1/|60001|5089|86.21.0.0/17|GB|ripencc|2005-03-29|NTL, GB
86.86.168.91|/Lana:1.0.0.1/|60001|1136|86.80.0.0/12|NL|ripencc|2005-03-23|KPN KPN National, EU
87.205.3.214|/Lana:1.0.0.1/|60001|12741|87.204.0.0/15|PL|ripencc|2005-07-06|AS-NETIA Warszawa 02-822, PL
89.142.77.172|/Lana:1.0.0.1/|60001|5603|89.142.64.0/18|SI|ripencc|2006-03-03|SIOL-NET Telekom Slovenije d.d., SI
89.212.11.158|/Lana:1.0.0.1/|60001|34779|89.212.0.0/18|SI|ripencc|2006-05-03|T-2-AS AS set propagated by T-2, d.o.o., SI
89.212.118.169|/Lana:1.0.0.1/|60001|34779|89.212.64.0/18|SI|ripencc|2006-05-03|T-2-AS AS set propagated by T-2, d.o.o., SI
89.212.21.117|/Lana:1.0.0.1/|60001|34779|89.212.0.0/18|SI|ripencc|2006-05-03|T-2-AS AS set propagated by T-2, d.o.o., SI
89.64.70.242|/Lana:1.0.0.1/|60001|6830|89.64.0.0/13|PL|ripencc|2006-02-22|LIBERTYGLOBAL Liberty Global (formerly UPC Broadband Holding, aka AORTA), AT
92.251.169.209|/Lana:1.0.0.1/|60001|13280|92.251.128.0/17|IE|ripencc|2007-11-23|H3G, IE
92.37.94.135|/Lana:1.0.0.1/|60001|21283|92.37.0.0/17|SI|ripencc|2008-01-14|A1SI-AS A1 Slovenija, SI
93.103.146.102|/Lana:1.0.0.1/|60001|34779|93.103.128.0/19|SI|ripencc|2008-03-14|T-2-AS AS set propagated by T-2, d.o.o., SI
93.103.20.240|/Lana:1.0.0.1/|60001|34779|93.103.0.0/19|SI|ripencc|2008-03-14|T-2-AS AS set propagated by T-2, d.o.o., SI
94.31.96.174|/Lana:1.0.0.1/|60001|60294|94.31.64.0/18|DE|ripencc|2010-02-03|DE-DGW Deutsche Glasfaser Wholesale Internet, DE
95.111.234.166|/Lana:1.0.0.1/|60001|51167|95.111.234.0/23|DE|ripencc|2008-12-30|CONTABO, DE
95.217.77.209|/Lana:1.0.0.1/|60001|24940|95.217.0.0/16|DE|ripencc|2009-02-24|HETZNER-AS, DE
95.90.198.164|/Lana:1.0.0.1/|60001|3209|95.88.0.0/14|DE|ripencc|2008-12-15|VODANET International IP-Backbone of Vodafone, DE
97.73.244.10|/Lana:1.0.0.1/|60001|6621|97.73.244.0/22|US|arin|2007-08-03|HNS-DIRECPC, US
