# https://chainz.cryptoid.info/ and whois results
# Mooncoin
IP Address|Subver|Version|ASN|BGP Prefix|CC|Registry|Allocated|AS Name
108.61.250.169|/MooncoinCore:0.17.1/|70017|20473|108.61.250.0/24|US|arin|2010-12-08|AS-CHOOPA, US
110.232.113.233|/MooncoinCore:0.17.1/|70017|133159|110.232.112.0/22|AU|apnic|2009-05-20|MAMMOTHMEDIA-AS-AP Mammoth Media Pty Ltd, AU
112.199.240.103|/Mooncoin:0.13.9/|70016|4773|112.199.192.0/18|SG|apnic|2009-02-17|MOBILEONELTD-AS-AP MobileOne Ltd. Mobile/Internet Service Provider Singapore, SG
121.157.72.162|/Mooncoin:0.13.9/|70016|4766|121.152.0.0/13|KR|apnic|2006-04-07|KIXS-AS-KR Korea Telecom, KR
136.24.44.100|/MooncoinCore:0.17.1/|70017|19165|136.24.0.0/16|US|arin|2016-10-31|WEBPASS, US
140.82.44.141|/MooncoinCore:0.17.1/|70017|20473|140.82.44.0/22|US|arin|2018-03-15|AS-CHOOPA, US
142.163.93.253|/MooncoinCore:0.17.1/|70017|855|142.163.88.0/21|CA|arin|1992-08-26|CANET-ASN-4, CA
142.4.214.7|/MooncoinCore:0.17.1/|70017|16276|142.4.192.0/19|CA|arin|2012-07-23|OVH, FR
142.44.212.178|/MooncoinCore:0.17.1/|70017|16276|142.44.128.0/17|CA|arin|2017-06-21|OVH, FR
147.135.97.183|/MooncoinCore:0.17.1/|70017|16276|147.135.0.0/17|US|arin|2017-03-22|OVH, FR
149.56.155.28|/Mooncoin:0.13.9/|70016|16276|149.56.0.0/16|CA|arin|2016-02-09|OVH, FR
149.62.205.88|/loaf-android:17.3.3/|70015|29244|149.62.192.0/18|BG|ripencc|2011-07-25|TELENORBG-AS, BG
174.45.98.151|/Mooncoin:0.13.9/|70016|33588|174.45.0.0/16|US|arin|2011-12-22|BRESNAN-33588, US
178.252.198.135|/Mooncoin:0.13.9/|70016|24689|178.252.198.0/24|RU|ripencc|2010-05-31|ROSINTEL-AS, RU
180.242.17.75|/MooncoinCore:0.17.1/|70017|7713|180.242.16.0/20|ID|apnic|2009-10-20|TELKOMNET-AS-AP PT Telekomunikasi Indonesia, ID
185.82.203.241|/MooncoinCore:0.17.1/|70017|60117|185.82.203.0/24|NL|ripencc|2014-12-31|HS, AE
185.85.80.56|/Mooncoin:0.13.9/|70016|202120|185.85.80.0/22|NL|ripencc|2015-01-23|COMSAVE-AS, NL
188.165.205.90|/MooncoinCore:0.17.1/|70017|16276|188.165.0.0/16|FR|ripencc|2009-06-05|OVH, FR
194.152.28.203|/loaf-android:17.3.3/|70015|3212|194.152.0.0/19|SI|ripencc|1996-05-17|TELEMACH Broadband Access & Carrier Services, SI
194.193.53.227|/MooncoinCore:0.17.1/|70017|7545|194.193.48.0/20|AU|apnic|1995-08-31|TPG-INTERNET-AP TPG Telecom Limited, AU
196.50.198.176|/MooncoinCore:0.17.1/|70017|327782|196.50.192.0/18|ZA|afrinic|2017-03-01|METROFIBRE-NETWORX, ZA
43.228.156.29|/Mooncoin:0.13.9/|70016|45671|43.228.156.0/24|PK|apnic|2015-01-05|AS45671-NET-AU Wholesale Services Provider, AU
45.119.81.123|/Mooncoin:0.13.9/|70016|131386|45.119.80.0/22|VN|apnic|2015-06-04|LVSS-AS-VN Long Van System Solution JSC, VN
45.89.172.68|/loaf-android:17.3.3/|70015|9009|45.89.172.0/24|RO|ripencc|2019-06-21|M247, GB
46.101.235.143|/Mooncoin:0.13.9/|70016|14061|46.101.128.0/17|NL|ripencc|2010-06-24|DIGITALOCEAN-ASN, US
46.166.162.81|/MooncoinCore:0.17.1/|70017|16125|46.166.160.0/21|LT|ripencc|2010-12-16|CHERRYSERVERS1-AS, LT
46.23.35.70|/Mooncoin:0.13.9.1/|70016|24651|46.23.32.0/20|LV|ripencc|2010-12-02|LVBALTICOM-AS, LV
46.28.107.182|/Mooncoin:0.13.9/|70016|197019|46.28.104.0/21|CZ|ripencc|2010-07-22|WEDOS, CZ
47.232.181.128|/MooncoinCore:0.17.1/|70017|20115|47.232.128.0/17|US|arin|2017-11-27|CHARTER-20115, US
5.101.131.193|/MooncoinCore:0.17.1/|70017|56340|5.101.128.0/21|RU|ripencc|2012-06-26|UMNYESETI-AS, RU
5.188.84.215|???|0|34665|5.188.84.0/24|RU|ripencc|2012-08-09|PINDC-AS, RU
5.208.6.113|/loaf-android:17.3.3/|70015|197207|5.208.0.0/17|IR|ripencc|2012-09-04|MCCI-AS, IR
5.45.105.66|/Mooncoin:0.13.9/|70016|197540|5.45.96.0/20|DE|ripencc|2012-05-24|NETCUP-AS netcup GmbH, DE
5.9.10.66|/Mooncoin:0.13.9/|70016|24940|5.9.0.0/16|DE|ripencc|2012-04-25|HETZNER-AS, DE
50.220.121.211|/MooncoinCore:0.17.1/|70017|7922|50.128.0.0/9|US|arin|2010-10-21|COMCAST-7922, US
51.178.92.91|/MooncoinCore:0.17.1/|70017|16276|51.178.0.0/16|FR|ripencc|1993-09-01|OVH, FR
51.38.57.53|/MooncoinCore:0.17.1/|70017|16276|51.38.0.0/16|FR|ripencc|1993-09-01|OVH, FR
51.91.244.3|/MooncoinCore:0.17.1/|70017|16276|51.91.0.0/16|FR|ripencc|1993-09-01|OVH, FR
58.173.37.165|/Mooncoin:0.18.1/|70016|1221|58.160.0.0/12|AU|apnic|2006-02-13|ASN-TELSTRA Telstra Corporation Ltd, AU
58.96.84.1|/Mooncoin:0.13.9/|70016|10143|58.96.64.0/19|AU|apnic|2005-04-11|EXETEL-AS-AP Exetel Pty Ltd, AU
66.70.182.1|/Mooncoin:0.13.9/|70016|16276|66.70.128.0/17|CA|arin|2017-02-13|OVH, FR
70.123.252.204|/MooncoinCore:0.17.1/|70017|11427|70.122.0.0/15|US|arin|2004-09-17|TWC-11427-TEXAS, US
72.78.71.197|/MooncoinCore:0.17.1/|70017|701|72.78.0.0/16|US|arin|2005-06-24|UUNET, US
73.2.117.134|/MooncoinCore:0.17.1/|70017|7922|73.0.0.0/8|US|arin|2005-04-19|COMCAST-7922, US
76.171.103.49|/MooncoinCore:0.17.1/|70017|20001|76.168.0.0/13|US|arin|2006-07-26|TWC-20001-PACWEST, US
77.181.162.216|/MooncoinCore:0.17.1/|70017|6805|77.176.0.0/12|DE|ripencc|2006-11-17|TDDE-ASN1, DE
78.46.18.218|/MooncoinCore:0.17.1/|70017|24940|78.46.0.0/15|DE|ripencc|2007-04-16|HETZNER-AS, DE
79.34.226.240|/Mooncoin:0.13.9/|70016|3269|79.34.0.0/16|IT|ripencc|2007-02-21|ASN-IBSNAZ, IT
79.50.188.71|/MooncoinCore:0.17.1/|70017|3269|79.50.0.0/15|IT|ripencc|2007-02-21|ASN-IBSNAZ, IT
80.240.17.142|/MooncoinCore:0.17.1/|70017|20473|80.240.16.0/20|DE|ripencc|2005-08-12|AS-CHOOPA, US
82.100.92.12|/MooncoinCore:0.17.1/|70017|13189|82.100.64.0/18|SE|ripencc|2005-04-20|LIDERO Lidero Network, SE
83.139.159.183|/MooncoinCore:0.17.1/|70017|6856|83.139.128.0/18|RU|ripencc|2009-04-23|IC-VORONEZH-AS Informsvyaz - Chernozemye, RU
84.107.99.176|/Mooncoin:0.13.9/|70016|33915|84.106.0.0/15|NL|ripencc|2004-04-26|TNF-AS, NL
84.22.52.98|/Mooncoin:0.13.9/|70016|33983|84.22.52.0/24|RS|ripencc|2004-09-21|ARTMOTION-AS, RS
84.234.52.190|/MooncoinCore:0.17.1/|70017|49560|84.234.48.0/20|MD|ripencc|2009-07-02|LINKS-MD-AS, MD
85.15.179.171|/Mooncoin:0.13.9/|70016|12389|85.15.128.0/18|RU|ripencc|2005-04-26|ROSTELECOM-AS, RU
89.199.107.48|/loaf-android:17.3.3/|70015|197207|89.199.0.0/17|IR|ripencc|2006-04-06|MCCI-AS, IR
91.61.17.239|/Mooncoin:0.13.9/|70016|3320|91.0.0.0/10|DE|ripencc|2006-07-03|DTAG Internet service provider operations, DE
93.104.171.83|/MooncoinCore:0.17.1/|70017|8767|93.104.0.0/16|DE|ripencc|2008-03-18|MNET-AS Germany, DE
93.115.26.186|/MooncoinCore:0.17.1/|70017|16125|93.115.24.0/21|LT|ripencc|2007-12-21|CHERRYSERVERS1-AS, LT
94.130.21.58|/Mooncoin:0.13.9/|70016|24940|94.130.0.0/16|DE|ripencc|2008-06-23|HETZNER-AS, DE
94.23.2.215|/Mooncoin:0.13.9/|70016|16276|94.23.0.0/16|FR|ripencc|2008-07-15|OVH, FR
95.84.181.157|/Mooncoin:0.13.9/|70016|42610|95.84.128.0/18|RU|ripencc|2008-12-18|NCNET-AS, RU
98.32.65.98|/MooncoinCore:0.17.1/|70017|7922|98.32.0.0/11|US|arin|2007-06-06|COMCAST-7922, US
99.155.224.126|/Mooncoin:0.13.9/|70016|7018|99.152.0.0/14|US|arin|2007-08-29|ATT-INTERNET4, US
