# https://chainz.cryptoid.info/ and whois results
# Nevacoin
IP Address|Subver|Version|ASN|BGP Prefix|CC|Registry|Allocated|AS Name
136.24.44.100|/Neva:1.4.0/|65010|19165|136.24.0.0/16|US|arin|2016-10-31|WEBPASS, US
136.56.175.54|/Neva:1.4.0/|65010|16591|136.56.160.0/20|US|arin|2015-10-06|GOOGLE-FIBER, US
143.107.228.226|/Neva:1.4.0/|65010|28571|143.107.0.0/16|BR|lacnic|1990-03-26|UNIVERSIDADE DE SAO PAULO, BR
143.107.229.210|/Neva:1.4.0/|65010|28571|143.107.0.0/16|BR|lacnic|1990-03-26|UNIVERSIDADE DE SAO PAULO, BR
176.99.4.144|/Neva:1.4.0/|65010|49352|176.99.4.0/24|RU|ripencc|2012-06-26|LOGOL-AS, RU
178.196.25.101|/Neva:1.4.0/|65010|3303|178.196.0.0/15|CH|ripencc|2010-02-24|SWISSCOM Swisscom (Switzerland) Ltd, CH
178.216.56.114|/Neva:1.4.0/|65010|50815|178.216.56.0/21|SI|ripencc|2010-03-29|BTC-AS, SI
178.32.41.81|/Neva:1.4.0/|65010|16276|178.32.0.0/15|FR|ripencc|2010-01-19|OVH, FR
178.62.201.226|/Neva:1.4.0/|65010|14061|178.62.192.0/18|EU|ripencc|2010-02-26|DIGITALOCEAN-ASN, US
188.226.241.228|/Neva:1.4.0/|65010|14061|188.226.128.0/17|EU|ripencc|2009-07-09|DIGITALOCEAN-ASN, US
189.54.192.176|/Neva:1.4.0/|65010|28573|189.54.192.0/19|BR|lacnic|2007-07-30|CLARO S.A., BR
193.164.140.162|/Neva:1.4.0/|65010|41427|193.164.140.0/24|SI|ripencc|2006-08-18|MARC-NET_AS, SI
193.70.35.154|/Neva:1.4.0/|65010|16276|193.70.0.0/17|FR|ripencc|1993-09-01|OVH, FR
198.52.110.225|/Neva:1.4.0/|65010|35916|198.52.96.0/19|US|arin|2012-12-26|MULTA-ASN1, US
213.172.224.238|/Neva:1.4.0/|65010|3212|213.172.224.0/19|SI|ripencc|2003-02-17|TELEMACH Broadband Access & Carrier Services, SI
31.127.247.223|/Neva:1.4.0/|65010|12576|31.127.0.0/16|GB|ripencc|2010-11-25|EE Ltd, GB
46.101.235.143|/Neva:1.4.0/|65010|14061|46.101.128.0/17|NL|ripencc|2010-06-24|DIGITALOCEAN-ASN, US
70.91.250.149|/Neva:1.4.0/|65010|7922|70.88.0.0/14|US|arin|2004-08-09|COMCAST-7922, US
79.120.89.222|/Neva:1.2.3/|65005|12714|79.120.0.0/17|RU|ripencc|2007-07-05|TI-AS Moscow, Russia, RU
81.31.49.4|/Neva:1.4.0/|65010|41242|81.31.48.0/20|FI|ripencc|2006-04-05|SOFOR-RIPE Sofor is an ASP and hosting company, FI
83.161.255.134|/Neva:1.4.0/|65010|3265|83.160.0.0/14|NL|ripencc|2004-03-03|XS4ALL-NL Amsterdam, NL
84.253.220.29|/Neva:1.4.0/|65010|16086|84.253.192.0/18|FI|ripencc|2004-09-21|DNA, FI
87.118.146.179|/Neva:1.4.0/|65010|203917|87.118.146.0/24|BG|ripencc|2005-10-05|HASHLINK Hashlink Ltd, BG
88.130.153.155|/Neva:1.4.0/|65010|8881|88.130.153.0/24|DE|ripencc|2005-10-17|VERSATEL, DE
88.130.153.195|/Neva:1.4.0/|65010|8881|88.130.153.0/24|DE|ripencc|2005-10-17|VERSATEL, DE
89.142.75.60|/Neva:1.4.0/|65010|5603|89.142.64.0/18|SI|ripencc|2006-03-03|SIOL-NET Telekom Slovenije d.d., SI
89.212.118.169|/Neva:1.4.0/|65010|34779|89.212.64.0/18|SI|ripencc|2006-05-03|T-2-AS AS set propagated by T-2, d.o.o., SI
90.64.194.238|/Neva:1.4.0/|65010|15962|90.64.0.0/16|FR|ripencc|2006-03-02|OSK-DNI Slovakia, SK
92.37.80.159|/Neva:1.4.0/|65010|21283|92.37.0.0/17|SI|ripencc|2008-01-14|A1SI-AS A1 Slovenija, SI
93.103.20.240|/Neva:1.4.0/|65010|34779|93.103.0.0/19|SI|ripencc|2008-03-14|T-2-AS AS set propagated by T-2, d.o.o., SI
94.134.92.201|/Neva:1.4.0/|65010|8881|94.134.92.0/24|DE|ripencc|2008-08-07|VERSATEL, DE
95.217.154.37|/Neva:1.4.0/|65010|24940|95.217.0.0/16|DE|ripencc|2009-02-24|HETZNER-AS, DE
95.217.77.209|/Neva:1.4.0/|65010|24940|95.217.0.0/16|DE|ripencc|2009-02-24|HETZNER-AS, DE
