# https://chainz.cryptoid.info/ and whois results
# Nevacoin
IP Address|Subver|Version|ASN|BGP Prefix|CC|Registry|Allocated|AS Name
109.181.62.25|/Neva:1.4.0/|65010|12576|109.181.0.0/16|GB|ripencc|2010-04-12|EE Ltd, GB
136.24.44.100|/Neva:1.4.0/|65010|19165|136.24.0.0/16|US|arin|2016-10-31|WEBPASS, US
136.56.175.54|/Neva:1.4.0/|65010|16591|136.56.160.0/20|US|arin|2015-10-06|GOOGLE-FIBER, US
143.107.229.210|/Neva:1.4.0/|65010|28571|143.107.0.0/16|BR|lacnic|1990-03-26|UNIVERSIDADE DE SAO PAULO, BR
176.99.4.144|/Neva:1.4.0/|65010|49352|176.99.4.0/24|RU|ripencc|2012-06-26|LOGOL-AS, RU
178.143.53.41|/Neva:1.4.0/|65010|15962|178.143.0.0/16|SK|ripencc|2010-08-04|OSK-DNI Slovakia, SK
178.196.25.101|/Neva:1.4.0/|65010|3303|178.196.0.0/15|CH|ripencc|2010-02-24|SWISSCOM Swisscom (Switzerland) Ltd, CH
178.216.56.114|/Neva:1.4.0/|65010|50815|178.216.56.0/21|SI|ripencc|2010-03-29|BTC-AS, SI
178.62.201.226|/Neva:1.4.0/|65010|14061|178.62.192.0/18|EU|ripencc|2010-02-26|DIGITALOCEAN-ASN, US
188.119.60.244|/Neva:1.4.0/|65010|12735|188.119.60.0/24|TR|ripencc|2011-01-12|ASTURKNET, TR
188.226.241.228|/Neva:1.4.0/|65010|14061|188.226.128.0/17|EU|ripencc|2009-07-09|DIGITALOCEAN-ASN, US
189.54.192.176|/Neva:1.4.0/|65010|28573|189.54.192.0/19|BR|lacnic|2007-07-30|CLARO S.A., BR
193.164.140.162|/Neva:1.4.0/|65010|41427|193.164.140.0/24|SI|ripencc|2006-08-18|MARC-NET_AS, SI
193.70.35.154|/Neva:1.4.0/|65010|16276|193.70.0.0/17|FR|ripencc|1993-09-01|OVH, FR
198.52.110.225|/Neva:1.4.0/|65010|35916|198.52.96.0/19|US|arin|2012-12-26|MULTA-ASN1, US
213.172.224.238|/Neva:1.4.0/|65010|3212|213.172.224.0/19|SI|ripencc|2003-02-17|TELEMACH Broadband Access & Carrier Services, SI
46.101.235.143|/Neva:1.4.0/|65010|14061|46.101.128.0/17|NL|ripencc|2010-06-24|DIGITALOCEAN-ASN, US
70.91.250.149|/Neva:1.4.0/|65010|7922|70.88.0.0/14|US|arin|2004-08-09|COMCAST-7922, US
81.31.49.4|/Neva:1.4.0/|65010|41242|81.31.48.0/20|FI|ripencc|2006-04-05|SOFOR-RIPE Sofor is an ASP and hosting company, FI
84.253.220.29|/Neva:1.4.0/|65010|16086|84.253.192.0/18|FI|ripencc|2004-09-21|DNA, FI
86.120.228.80|/Neva:1.4.0/|65010|8708|86.120.0.0/13|RO|ripencc|2005-03-16|RCS-RDS 73-75 Dr. Staicovici, RO
87.118.146.179|/Neva:1.4.0/|65010|203917|87.118.146.0/24|BG|ripencc|2005-10-05|HASHLINK Hashlink Ltd, BG
88.130.153.178|/Neva:1.4.0/|65010|8881|88.130.153.0/24|DE|ripencc|2005-10-17|VERSATEL, DE
88.130.153.180|/Neva:1.4.0/|65010|8881|88.130.153.0/24|DE|ripencc|2005-10-17|VERSATEL, DE
89.142.65.122|/Neva:1.4.0/|65010|5603|89.142.64.0/18|SI|ripencc|2006-03-03|SIOL-NET Telekom Slovenije d.d., SI
89.142.77.172|/Neva:1.4.0/|65010|5603|89.142.64.0/18|SI|ripencc|2006-03-03|SIOL-NET Telekom Slovenije d.d., SI
89.142.77.237|/Neva:1.4.0/|65010|5603|89.142.64.0/18|SI|ripencc|2006-03-03|SIOL-NET Telekom Slovenije d.d., SI
89.212.11.158|/Neva:1.4.0/|65010|34779|89.212.0.0/18|SI|ripencc|2006-05-03|T-2-AS AS set propagated by T-2, d.o.o., SI
89.212.118.169|/Neva:1.4.0/|65010|34779|89.212.64.0/18|SI|ripencc|2006-05-03|T-2-AS AS set propagated by T-2, d.o.o., SI
90.154.210.39|/Neva:1.4.0/|65010|8866|90.154.192.0/19|BG|ripencc|2006-11-13|BTC-AS BULGARIA, BG
92.37.80.159|/Neva:1.4.0/|65010|21283|92.37.0.0/17|SI|ripencc|2008-01-14|A1SI-AS A1 Slovenija, SI
93.103.20.240|/Neva:1.4.0/|65010|34779|93.103.0.0/19|SI|ripencc|2008-03-14|T-2-AS AS set propagated by T-2, d.o.o., SI
94.134.92.10|/Neva:1.4.0/|65010|8881|94.134.92.0/24|DE|ripencc|2008-08-07|VERSATEL, DE
95.217.154.37|/Neva:1.4.0/|65010|24940|95.217.0.0/16|DE|ripencc|2009-02-24|HETZNER-AS, DE
95.217.77.209|/Neva:1.4.0/|65010|24940|95.217.0.0/16|DE|ripencc|2009-02-24|HETZNER-AS, DE
