# https://chainz.cryptoid.info/ and whois results
# NIX Core
IP Address|Subver|Version|ASN|BGP Prefix|CC|Registry|Allocated|AS Name
104.248.194.27|/Nix Core:3.0.7/|70021|14061|104.248.192.0/20|US|arin|2018-08-06|DIGITALOCEAN-ASN, US
116.202.30.97|/Nix Core:3.0.8/|70021|24940|116.202.0.0/16|DE|ripencc|2011-01-17|HETZNER-AS, DE
139.162.202.24|/Nix Core:3.0.7/|70021|63949|139.162.192.0/19|NL|ripencc|1990-03-24|LINODE-AP Linode, LLC, US
144.202.99.93|/Nix Core:3.0.7/|70021|20473|144.202.96.0/20|US|arin|2018-02-05|AS-CHOOPA, US
164.68.112.107|/Nix Core:3.0.4/|70021|51167|164.68.112.0/23|DE|ripencc|1992-12-17|CONTABO, DE
165.22.225.213|/Nix Core:3.0.8/|70021|14061|165.22.224.0/20|US|arin|2018-10-16|DIGITALOCEAN-ASN, US
18.185.237.34|/Nix Core:3.0.8/|70021|16509|18.184.0.0/15|US|arin|2018-06-29|AMAZON-02, US
206.189.31.197|/Nix Core:3.0.8/|70021|14061|206.189.16.0/20|US|arin|1995-11-15|DIGITALOCEAN-ASN, US
213.172.235.8|/Nix Core:3.0.8/|70021|3212|213.172.224.0/19|SI|ripencc|2003-02-17|TELEMACH Broadband Access & Carrier Services, SI
213.7.37.32|/Nix Core:3.0.7/|70021|6866|213.7.32.0/20|CY|ripencc|2006-05-24|CYTA-NETWORK Internet Services, CY
221.122.37.72|/Nix Core:3.0.7/|70021|23724|221.122.32.0/20|CN|apnic|2003-07-07|CHINANET-IDC-BJ-AP IDC, China Telecommunications Corporation, CN
45.63.76.131|/Nix Core:3.0.7/|70021|20473|45.63.64.0/20|US|arin|2015-01-02|AS-CHOOPA, US
45.77.98.228|/Nix Core:3.0.7/|70021|20473|45.77.96.0/20|US|arin|2015-04-24|AS-CHOOPA, US
46.4.205.24|/Nix Core:3.0.8/|70021|24940|46.4.0.0/16|DE|ripencc|2010-08-19|HETZNER-AS, DE
50.252.7.9|/Nix Core:3.0.8/|70021|7922|50.128.0.0/9|US|arin|2010-10-21|COMCAST-7922, US
68.183.198.93|/Nix Core:3.0.8/|70021|14061|68.183.192.0/20|US|arin|2018-09-18|DIGITALOCEAN-ASN, US
73.48.142.152|/Nix Core:3.0.0/|70021|7922|73.0.0.0/8|US|arin|2005-04-19|COMCAST-7922, US
78.46.122.119|/Nix Core:2.3.1/|70021|24940|78.46.0.0/15|DE|ripencc|2007-04-16|HETZNER-AS, DE
81.167.167.198|/Nix Core:3.0.0/|70021|29695|81.166.0.0/15|NO|ripencc|2005-01-04|ALTIBOX_AS Norway, NO
81.8.37.250|/Nix Core:2.3.0/|70021|15924|81.8.37.0/24|TR|ripencc|2001-12-19|BORUSANTELEKOM-AS, TR
95.168.164.219|/Nix Core:3.0.8/|70021|60781|95.168.160.0/20|NL|ripencc|2009-01-06|LEASEWEB-NL-AMS-01 Netherlands, NL
95.211.230.211|/Nix Core:3.0.7/|70021|60781|95.211.0.0/16|NL|ripencc|2009-02-05|LEASEWEB-NL-AMS-01 Netherlands, NL
95.216.174.115|/Nix Core:3.0.8/|70021|24940|95.216.0.0/16|DE|ripencc|2009-02-24|HETZNER-AS, DE
95.217.71.194|/Nix Core:3.0.8/|70021|24940|95.217.0.0/16|DE|ripencc|2009-02-24|HETZNER-AS, DE
