# https://chainz.cryptoid.info/ and whois results
# NIX Core
IP Address|Subver|Version|ASN|BGP Prefix|CC|Registry|Allocated|AS Name
116.202.30.97|/Nix Core:3.0.8/|70021|24940|116.202.0.0/16|DE|ripencc|2011-01-17|HETZNER-AS, DE
116.202.96.128|/Nix Core:3.0.8/|70021|24940|116.202.0.0/16|DE|ripencc|2011-01-17|HETZNER-AS, DE
133.130.121.36|/Nix Core:3.0.3/|70021|7506|133.130.64.0/18|JP|apnic|1997-03-01|INTERQ GMO Internet,Inc, JP
133.18.197.65|/Nix Core:3.0.7/|70021|24282|133.18.0.0/16|JP|apnic|1997-03-01|KIR KAGOYA JAPAN Inc., JP
138.197.165.255|/Nix Core:3.0.8/|70021|14061|138.197.160.0/20|US|arin|2016-01-26|DIGITALOCEAN-ASN, US
139.162.202.24|/Nix Core:3.0.7/|70021|63949|139.162.192.0/19|NL|ripencc|1990-03-24|LINODE-AP Linode, LLC, US
144.202.99.93|/Nix Core:3.0.7/|70021|20473|144.202.96.0/20|US|arin|2018-02-05|AS-CHOOPA, US
159.69.245.141|/Nix Core:3.0.8/|70021|24940|159.69.0.0/16|DE|ripencc|1992-03-13|HETZNER-AS, DE
164.68.112.107|/Nix Core:3.0.4/|70021|51167|164.68.112.0/23|DE|ripencc|1992-12-17|CONTABO, DE
165.22.16.33|/Nix Core:3.0.8/|70021|14061|165.22.16.0/20|US|arin|2018-10-16|DIGITALOCEAN-ASN, US
165.22.225.213|/Nix Core:3.0.8/|70021|14061|165.22.224.0/20|US|arin|2018-10-16|DIGITALOCEAN-ASN, US
167.71.35.26|/Nix Core:3.0.8/|70021|14061|167.71.32.0/20|US|arin|2019-04-24|DIGITALOCEAN-ASN, US
167.99.41.13|/Nix Core:3.0.7/|70021|14061|167.99.32.0/20|US|arin|2017-11-10|DIGITALOCEAN-ASN, US
178.62.118.146|/Nix Core:3.0.8/|70021|14061|178.62.64.0/18|EU|ripencc|2010-02-26|DIGITALOCEAN-ASN, US
178.62.88.36|/Nix Core:3.0.8/|70021|14061|178.62.64.0/18|EU|ripencc|2010-02-26|DIGITALOCEAN-ASN, US
18.185.237.34|/Nix Core:3.0.8/|70021|16509|18.184.0.0/15|US|arin|2018-06-29|AMAZON-02, US
185.177.59.242|/Nix Core:3.0.7/|70021|44901|185.177.59.0/24|BG|ripencc|2016-11-10|BELCLOUD, BG
195.201.126.237|/Nix Core:2.3.1/|70021|24940|195.201.0.0/16|DE|ripencc|1997-09-22|HETZNER-AS, DE
195.201.32.87|/Nix Core:3.0.8/|70021|24940|195.201.0.0/16|DE|ripencc|1997-09-22|HETZNER-AS, DE
206.189.31.197|/Nix Core:3.0.8/|70021|14061|206.189.16.0/20|US|arin|1995-11-15|DIGITALOCEAN-ASN, US
206.189.43.134|/Nix Core:3.0.8/|70021|14061|206.189.32.0/20|US|arin|1995-11-15|DIGITALOCEAN-ASN, US
209.97.179.243|/Nix Core:3.0.8/|70021|14061|209.97.176.0/20|US|arin|1997-07-03|DIGITALOCEAN-ASN, US
212.111.42.60|/Nix Core:3.0.7/|70021|63949|212.111.40.0/22|GB|ripencc|1999-06-30|LINODE-AP Linode, LLC, US
213.172.235.8|/Nix Core:3.0.8/|70021|3212|213.172.224.0/19|SI|ripencc|2003-02-17|TELEMACH Broadband Access & Carrier Services, SI
221.122.37.72|/Nix Core:3.0.7/|70021|23724|221.122.32.0/20|CN|apnic|2003-07-07|CHINANET-IDC-BJ-AP IDC, China Telecommunications Corporation, CN
45.77.98.228|/Nix Core:3.0.7/|70021|20473|45.77.96.0/20|US|arin|2015-04-24|AS-CHOOPA, US
46.35.180.178|/Nix Core:3.0.7/|70021|58079|46.35.180.0/24|BG|ripencc|2010-10-20|SATCOM-TROYAN-NET, BG
46.4.205.24|/Nix Core:3.0.8/|70021|24940|46.4.0.0/16|DE|ripencc|2010-08-19|HETZNER-AS, DE
64.227.68.105|/Nix Core:3.0.8/|70021|14061|64.227.64.0/20|US|arin|2019-08-14|DIGITALOCEAN-ASN, US
68.183.198.93|/Nix Core:3.0.8/|70021|14061|68.183.192.0/20|US|arin|2018-09-18|DIGITALOCEAN-ASN, US
73.48.142.152|/Nix Core:3.0.0/|70021|7922|73.0.0.0/8|US|arin|2005-04-19|COMCAST-7922, US
78.46.122.119|/Nix Core:2.3.1/|70021|24940|78.46.0.0/15|DE|ripencc|2007-04-16|HETZNER-AS, DE
81.167.167.198|/Nix Core:3.0.0/|70021|29695|81.166.0.0/15|NO|ripencc|2005-01-04|ALTIBOX_AS Norway, NO
81.8.37.250|/Nix Core:2.3.0/|70021|15924|81.8.37.0/24|TR|ripencc|2001-12-19|BORUSANTELEKOM-AS, TR
82.64.185.60|/Nix Core:3.0.8/|70021|12322|82.64.0.0/14|FR|ripencc|2003-04-03|PROXAD, FR
91.132.144.88|/Nix Core:3.0.8/|70021|197540|91.132.144.0/22|DE|ripencc|2018-12-20|NETCUP-AS netcup GmbH, DE
91.92.128.11|/Nix Core:3.0.7/|70021|44901|91.92.128.0/24|CY|ripencc|2006-08-15|BELCLOUD, BG
95.179.163.125|/Nix Core:3.0.7/|70021|20473|95.179.160.0/20|NL|ripencc|2009-01-22|AS-CHOOPA, US
95.211.230.211|/Nix Core:3.0.7/|70021|60781|95.211.0.0/16|NL|ripencc|2009-02-05|LEASEWEB-NL-AMS-01 Netherlands, NL
95.216.174.115|/Nix Core:3.0.8/|70021|24940|95.216.0.0/16|DE|ripencc|2009-02-24|HETZNER-AS, DE
95.216.84.32|/Nix Core:3.0.8/|70021|24940|95.216.0.0/16|DE|ripencc|2009-02-24|HETZNER-AS, DE
95.217.71.193|/Nix Core:3.0.8/|70021|24940|95.217.0.0/16|DE|ripencc|2009-02-24|HETZNER-AS, DE
95.217.71.194|/Nix Core:3.0.8/|70021|24940|95.217.0.0/16|DE|ripencc|2009-02-24|HETZNER-AS, DE
