# https://chainz.cryptoid.info/ and whois results
# NIX Core
IP Address|Subver|Version|ASN|BGP Prefix|CC|Registry|Allocated|AS Name
104.244.78.231|/Nix Core:3.0.8/|70021|53667|104.244.78.0/24|US|arin|2014-11-10|PONYNET, US
104.248.194.27|/Nix Core:3.0.7/|70021|14061|104.248.192.0/20|US|arin|2018-08-06|DIGITALOCEAN-ASN, US
107.189.10.245|/Nix Core:3.0.8/|70021|53667|107.189.8.0/22|US|arin|2014-04-17|PONYNET, US
116.202.100.206|/Nix Core:3.0.8/|70021|24940|116.202.0.0/16|DE|ripencc|2011-01-17|HETZNER-AS, DE
133.130.121.36|/Nix Core:3.0.3/|70021|7506|133.130.64.0/18|JP|apnic|1997-03-01|INTERQ GMO Internet,Inc, JP
136.55.181.197|/Nix Core:3.0.8/|70021|16591|136.55.176.0/20|US|arin|2015-10-06|GOOGLE-FIBER, US
144.202.99.93|/Nix Core:3.0.7/|70021|20473|144.202.96.0/20|US|arin|2018-02-05|AS-CHOOPA, US
164.68.112.107|/Nix Core:3.0.4/|70021|51167|164.68.112.0/23|DE|ripencc|1992-12-17|CONTABO, DE
165.22.225.213|/Nix Core:3.0.8/|70021|14061|165.22.224.0/20|US|arin|2018-10-16|DIGITALOCEAN-ASN, US
178.62.26.234|/Nix Core:3.0.8/|70021|14061|178.62.0.0/18|EU|ripencc|2010-02-26|DIGITALOCEAN-ASN, US
185.203.118.235|/Nix Core:3.0.7/|70021|44901|185.203.118.0/24|CY|ripencc|2017-05-12|BELCLOUD, BG
185.220.100.254|/Nix Core:3.0.8/|70021|205100|185.220.100.0/24|DE|ripencc|2017-09-12|F3NETZE, DE
185.220.101.216|/Nix Core:3.0.7/|70021|208294|185.220.101.0/24|DE|ripencc|2017-09-12|ASMK, NL
206.189.31.197|/Nix Core:3.0.8/|70021|14061|206.189.16.0/20|US|arin|1995-11-15|DIGITALOCEAN-ASN, US
221.122.37.72|/Nix Core:3.0.7/|70021|23724|221.122.32.0/20|CN|apnic|2003-07-07|CHINANET-IDC-BJ-AP IDC, China Telecommunications Corporation, CN
31.15.240.199|/Nix Core:3.0.7/|70021|3212|31.15.128.0/17|SI|ripencc|2011-04-20|TELEMACH Broadband Access & Carrier Services, SI
45.63.17.55|/Nix Core:3.0.8/|70021|20473|45.63.16.0/21|US|arin|2015-01-02|AS-CHOOPA, US
45.76.123.132|/Nix Core:3.0.7/|70021|20473|45.76.112.0/20|US|arin|2015-04-24|AS-CHOOPA, US
45.77.98.228|/Nix Core:3.0.7/|70021|20473|45.77.96.0/20|US|arin|2015-04-24|AS-CHOOPA, US
46.4.205.24|/Nix Core:3.0.8/|70021|24940|46.4.0.0/16|DE|ripencc|2010-08-19|HETZNER-AS, DE
47.148.174.30|/Nix Core:3.0.7/|70021|5650|47.144.0.0/13|US|arin|2015-08-28|FRONTIER-FRTR, US
50.252.7.9|/Nix Core:3.0.8/|70021|7922|50.128.0.0/9|US|arin|2010-10-21|COMCAST-7922, US
51.6.184.190|/Nix Core:3.0.8/|70021|6871|51.6.0.0/15|GB|ripencc|1993-09-01|PLUSNET UK Internet Service Provider, GB
66.42.69.195|/Nix Core:3.0.7/|70021|20473|66.42.64.0/20|US|arin|2018-05-07|AS-CHOOPA, US
67.164.170.54|/Nix Core:3.0.8/|70021|7922|67.160.0.0/11|US|arin|2002-12-16|COMCAST-7922, US
68.183.198.93|/Nix Core:3.0.8/|70021|14061|68.183.192.0/20|US|arin|2018-09-18|DIGITALOCEAN-ASN, US
78.46.122.119|/Nix Core:2.3.1/|70021|24940|78.46.0.0/15|DE|ripencc|2007-04-16|HETZNER-AS, DE
81.150.183.169|/Nix Core:3.0.8/|70021|2856|81.128.0.0/11|GB|ripencc|2002-07-25|BT-UK-AS BTnet UK Regional network, GB
81.167.167.198|/Nix Core:3.0.0/|70021|29695|81.166.0.0/15|NO|ripencc|2005-01-04|ALTIBOX_AS Norway, NO
95.168.164.219|/Nix Core:3.0.8/|70021|60781|95.168.160.0/20|NL|ripencc|2009-01-06|LEASEWEB-NL-AMS-01 Netherlands, NL
95.216.215.18|/Nix Core:3.0.8/|70021|24940|95.216.0.0/16|DE|ripencc|2009-02-24|HETZNER-AS, DE
95.217.71.194|/Nix Core:3.0.8/|70021|24940|95.217.0.0/16|DE|ripencc|2009-02-24|HETZNER-AS, DE
95.217.97.215|/Nix Core:3.0.8/|70021|24940|95.217.0.0/16|DE|ripencc|2009-02-24|HETZNER-AS, DE
