# https://chainz.cryptoid.info/ and whois results
# NIX Core
IP Address|Subver|Version|ASN|BGP Prefix|CC|Registry|Allocated|AS Name
104.248.194.27|/Nix Core:3.0.7/|70021|14061|104.248.192.0/20|US|arin|2018-08-06|DIGITALOCEAN-ASN, US
108.61.208.168|/Nix Core:3.0.7/|70021|20473|108.61.208.0/23|US|arin|2010-12-08|AS-CHOOPA, US
116.202.172.79|/Nix Core:3.0.8/|70021|24940|116.202.0.0/16|DE|ripencc|2011-01-17|HETZNER-AS, DE
133.18.175.252|/Nix Core:3.0.7/|70021|24282|133.18.0.0/16|JP|apnic|1997-03-01|KIR KAGOYA JAPAN Inc., JP
141.135.86.16|/Nix Core:3.0.7/|70021|6848|141.134.0.0/15|BE|ripencc|2011-06-20|TELENET-AS, BE
142.162.153.204|/Nix Core:3.0.7/|70021|855|142.162.152.0/22|CA|arin|1992-08-26|CANET-ASN-4, CA
159.69.240.168|/Nix Core:3.0.8/|70021|24940|159.69.0.0/16|DE|ripencc|1992-03-13|HETZNER-AS, DE
164.68.112.107|/Nix Core:3.0.4/|70021|51167|164.68.112.0/23|DE|ripencc|1992-12-17|CONTABO, DE
173.249.51.179|/Nix Core:3.0.8/|70021|51167|173.249.50.0/23|DE|ripencc|2010-05-26|CONTABO, DE
176.223.143.91|/Nix Core:2.3.0.1/|70021|62282|176.223.128.0/20|LT|ripencc|2011-11-29|RACKRAY UAB Rakrejus, LT
176.58.97.244|/Nix Core:3.0.7/|70021|63949|176.58.96.0/19|GB|ripencc|2011-06-06|LINODE-AP Linode, LLC, US
180.190.33.196|/Nix Core:3.0.7/|70021|132199|180.190.33.0/24|PH|apnic|2009-09-17|GLOBE-MOBILE-5TH-GEN-AS Globe Telecom Inc., PH
188.40.21.225|/Nix Core:3.0.8/|70021|24940|188.40.0.0/16|DE|ripencc|2009-04-23|HETZNER-AS, DE
203.220.82.57|/Nix Core:3.0.8/|70021|7545|203.220.80.0/22|AU|apnic|2001-02-20|TPG-INTERNET-AP TPG Telecom Limited, AU
207.148.124.180|/Nix Core:3.0.7/|70021|20473|207.148.120.0/21|US|apnic|1996-06-07|AS-CHOOPA, US
207.246.127.164|/Nix Core:3.0.7/|70021|20473|207.246.120.0/21|US|arin|2017-10-13|AS-CHOOPA, US
213.172.235.8|/Nix Core:3.0.7/|70021|3212|213.172.224.0/19|SI|ripencc|2003-02-17|TELEMACH Broadband Access & Carrier Services, SI
221.122.37.72|/Nix Core:3.0.7/|70021|23724|221.122.32.0/20|CN|apnic|2003-07-07|CHINANET-IDC-BJ-AP IDC, China Telecommunications Corporation, CN
23.129.64.197|/Nix Core:3.0.8/|70021|396507|23.129.64.0/24|US|arin|2017-07-19|EMERALD-ONION, US
45.76.124.97|/Nix Core:3.0.7/|70021|20473|45.76.112.0/20|US|arin|2015-04-24|AS-CHOOPA, US
47.152.184.216|/Nix Core:3.0.7/|70021|5650|47.152.0.0/14|US|arin|2015-08-28|FRONTIER-FRTR, US
51.38.27.156|/Nix Core:3.0.7/|70021|16276|51.38.0.0/16|FR|ripencc|1993-09-01|OVH, FR
71.12.39.206|/Nix Core:3.0.8/|70021|20115|71.12.32.0/20|US|arin|2004-10-01|CHARTER-20115, US
72.197.71.252|/Nix Core:3.0.7/|70021|22773|72.197.0.0/16|US|arin|2005-08-03|ASN-CXA-ALL-CCI-22773-RDC, US
76.188.213.128|/Nix Core:3.0.7/|70021|10796|76.188.0.0/15|US|arin|2006-07-26|TWC-10796-MIDWEST, US
78.46.122.119|/Nix Core:2.3.1/|70021|24940|78.46.0.0/15|DE|ripencc|2007-04-16|HETZNER-AS, DE
80.209.224.34|/Nix Core:2.3.0.1/|70021|62282|80.209.224.0/20|LT|ripencc|2001-12-12|RACKRAY UAB Rakrejus, LT
81.167.167.198|/Nix Core:3.0.0/|70021|29695|81.166.0.0/15|NO|ripencc|2005-01-04|ALTIBOX_AS Norway, NO
81.7.11.22|/Nix Core:3.0.8/|70021|35366|81.7.0.0/18|DE|ripencc|2009-09-18|ISPPRO-AS ISPPRO-AS covers the networks of ISPpro, DE
82.64.185.60|/Nix Core:3.0.8/|70021|12322|82.64.0.0/14|FR|ripencc|2003-04-03|PROXAD, FR
86.56.57.100|/Nix Core:3.0.8/|70021|20880|86.56.0.0/18|DE|ripencc|2005-04-13|TELECOLUMBUS, DE
95.216.112.67|/Nix Core:3.0.8/|70021|24940|95.216.0.0/16|DE|ripencc|2009-02-24|HETZNER-AS, DE
95.216.127.188|/Nix Core:3.0.8/|70021|24940|95.216.0.0/16|DE|ripencc|2009-02-24|HETZNER-AS, DE
95.216.163.172|/Nix Core:3.0.8/|70021|24940|95.216.0.0/16|DE|ripencc|2009-02-24|HETZNER-AS, DE
95.217.125.98|/Nix Core:3.0.8/|70021|24940|95.217.0.0/16|DE|ripencc|2009-02-24|HETZNER-AS, DE
