# https://chainz.cryptoid.info/ and whois results
# NIX Core
IP Address|Subver|Version|ASN|BGP Prefix|CC|Registry|Allocated|AS Name
106.150.27.187|/Nix Core:3.0.7/|70021|2516|106.128.0.0/11|JP|apnic|2011-03-15|KDDI KDDI CORPORATION, JP
116.202.96.128|/Nix Core:3.0.8/|70021|24940|116.202.0.0/16|DE|ripencc|2011-01-17|HETZNER-AS, DE
116.203.132.191|/Nix Core:3.0.8/|70021|24940|116.203.0.0/16|DE|ripencc|2011-01-17|HETZNER-AS, DE
116.203.29.250|/Nix Core:3.0.8/|70021|24940|116.203.0.0/16|DE|ripencc|2011-01-17|HETZNER-AS, DE
116.203.35.24|/Nix Core:3.0.8/|70021|24940|116.203.0.0/16|DE|ripencc|2011-01-17|HETZNER-AS, DE
116.203.87.114|/Nix Core:3.0.8/|70021|24940|116.203.0.0/16|DE|ripencc|2011-01-17|HETZNER-AS, DE
144.202.99.93|/Nix Core:3.0.8/|70021|20473|144.202.96.0/20|US|arin|2018-02-05|AS-CHOOPA, US
159.69.177.252|/Nix Core:3.0.8/|70021|24940|159.69.0.0/16|DE|ripencc|1992-03-13|HETZNER-AS, DE
159.69.27.155|/Nix Core:2.3.1/|70021|24940|159.69.0.0/16|DE|ripencc|1992-03-13|HETZNER-AS, DE
173.242.186.171|/Nix Core:3.0.8/|70021|22652|173.242.176.0/20|CA|arin|2017-09-20|FIBRENOIRE-INTERNET, CA
176.58.118.118|/Nix Core:3.0.7/|70021|63949|176.58.96.0/19|GB|ripencc|2011-06-06|LINODE-AP Linode, LLC, US
177.19.28.142|/Nix Core:3.0.8/|70021|18881|177.19.16.0/20|BR|lacnic|2010-12-07|TELEFONICA BRASIL S.A, BR
178.33.57.117|/Nix Core:3.0.8/|70021|16276|178.32.0.0/15|FR|ripencc|2010-01-19|OVH, FR
178.62.29.185|/Nix Core:3.0.8/|70021|14061|178.62.0.0/18|EU|ripencc|2010-02-26|DIGITALOCEAN-ASN, US
178.63.235.194|/Nix Core:3.0.8/|70021|24940|178.63.0.0/16|DE|ripencc|2010-03-02|HETZNER-AS, DE
178.63.236.103|/Nix Core:3.0.8/|70021|24940|178.63.0.0/16|DE|ripencc|2010-03-02|HETZNER-AS, DE
18.27.197.252|/Nix Core:3.0.8/|70021|3|18.27.0.0/16|US|arin|1994-01-01|MIT-GATEWAYS, US
188.40.21.226|/Nix Core:3.0.8/|70021|24940|188.40.0.0/16|DE|ripencc|2009-04-23|HETZNER-AS, DE
188.40.241.98|/Nix Core:3.0.8/|70021|24940|188.40.0.0/16|DE|ripencc|2009-04-23|HETZNER-AS, DE
192.166.245.176|/Nix Core:3.0.7/|70021|197706|192.166.245.0/24|DE|ripencc|2018-07-06|KEMINET, AL
195.201.143.187|/Nix Core:3.0.8/|70021|24940|195.201.0.0/16|DE|ripencc|1997-09-22|HETZNER-AS, DE
199.247.24.103|/Nix Core:3.0.7/|70021|20473|199.247.24.0/21|EU|ripencc|1996-04-09|AS-CHOOPA, US
213.172.235.8|/Nix Core:3.0.8/|70021|3212|213.172.224.0/19|SI|ripencc|2003-02-17|TELEMACH Broadband Access & Carrier Services, SI
217.138.221.130|/Nix Core:3.0.8/|70021|9009|217.138.221.0/24|GB|ripencc|2001-01-31|M247, GB
41.165.130.186|/Nix Core:3.0.8/|70021|36937|41.164.0.0/15|MU|afrinic|2007-02-22|Neotel-AS, ZA
45.32.154.11|/Nix Core:3.0.7/|70021|20473|45.32.152.0/21|US|arin|2015-02-17|AS-CHOOPA, US
45.63.17.55|/Nix Core:3.0.8/|70021|20473|45.63.16.0/21|US|arin|2015-01-02|AS-CHOOPA, US
45.76.124.97|/Nix Core:3.0.7/|70021|20473|45.76.112.0/20|US|arin|2015-04-24|AS-CHOOPA, US
46.165.245.154|/Nix Core:3.0.8/|70021|28753|46.165.192.0/18|DE|ripencc|2010-12-13|LEASEWEB-DE-FRA-10, DE
46.166.139.111|/Nix Core:3.0.8/|70021|43350|46.166.136.0/21|NL|ripencc|2010-12-16|NFORCE, NL
51.175.250.196|/Nix Core:3.0.8/|70021|29695|51.174.0.0/15|NO|ripencc|1993-09-01|ALTIBOX_AS Norway, NO
51.38.176.159|/Nix Core:3.0.7/|70021|16276|51.38.0.0/16|FR|ripencc|1993-09-01|OVH, FR
62.171.146.255|/Nix Core:3.0.8/|70021|51167|62.171.146.0/23|DE|ripencc|2000-08-18|CONTABO, DE
68.183.158.136|/Nix Core:3.0.7/|70021|14061|68.183.144.0/20|US|arin|2018-09-18|DIGITALOCEAN-ASN, US
78.46.122.119|/Nix Core:2.3.1/|70021|24940|78.46.0.0/15|DE|ripencc|2007-04-16|HETZNER-AS, DE
78.46.175.23|/Nix Core:3.0.8/|70021|24940|78.46.0.0/15|DE|ripencc|2007-04-16|HETZNER-AS, DE
81.150.183.169|/Nix Core:3.0.8/|70021|2856|81.128.0.0/11|GB|ripencc|2002-07-25|BT-UK-AS BTnet UK Regional network, GB
82.65.61.122|/Nix Core:3.0.8/|70021|12322|82.64.0.0/14|FR|ripencc|2003-04-03|PROXAD, FR
86.105.53.213|/Nix Core:3.0.7/|70021|200185|86.105.52.0/22|IT|ripencc|2005-04-18|XANDMAIL-ASN, DE
87.150.49.245|/Nix Core:3.0.8/|70021|3320|87.128.0.0/10|DE|ripencc|2005-05-03|DTAG Internet service provider operations, DE
88.204.1.34|/Nix Core:3.0.8/|70021|49980|88.204.0.0/21|RU|ripencc|2005-11-25|ARIEL-AS, RU
89.98.182.108|/Nix Core:3.0.8/|70021|6830|89.98.0.0/16|NL|ripencc|2006-02-20|LIBERTYGLOBAL Liberty Global (formerly UPC Broadband Holding, aka AORTA), AT
95.179.156.251|/Nix Core:3.0.8/|70021|20473|95.179.144.0/20|NL|ripencc|2009-01-22|AS-CHOOPA, US
95.179.181.195|/Nix Core:3.0.8/|70021|20473|95.179.176.0/20|NL|ripencc|2009-01-22|AS-CHOOPA, US
95.216.198.199|/Nix Core:3.0.8/|70021|24940|95.216.0.0/16|DE|ripencc|2009-02-24|HETZNER-AS, DE
95.216.213.245|/Nix Core:3.0.8/|70021|24940|95.216.0.0/16|DE|ripencc|2009-02-24|HETZNER-AS, DE
95.217.125.97|/Nix Core:3.0.8/|70021|24940|95.217.0.0/16|DE|ripencc|2009-02-24|HETZNER-AS, DE
95.217.7.206|/Nix Core:3.0.8/|70021|24940|95.217.0.0/16|DE|ripencc|2009-02-24|HETZNER-AS, DE
95.217.85.169|/Nix Core:3.0.8/|70021|24940|95.217.0.0/16|DE|ripencc|2009-02-24|HETZNER-AS, DE
