# https://chainz.cryptoid.info/ and whois results
# NIX Core
IP Address|Subver|Version|ASN|BGP Prefix|CC|Registry|Allocated|AS Name
116.202.35.157|/Nix Core:3.0.8/|70021|24940|116.202.0.0/16|DE|ripencc|2011-01-17|HETZNER-AS, DE
116.202.96.128|/Nix Core:3.0.8/|70021|24940|116.202.0.0/16|DE|ripencc|2011-01-17|HETZNER-AS, DE
116.203.132.191|/Nix Core:3.0.8/|70021|24940|116.203.0.0/16|DE|ripencc|2011-01-17|HETZNER-AS, DE
144.202.99.93|/Nix Core:3.0.8/|70021|20473|144.202.96.0/20|US|arin|2018-02-05|AS-CHOOPA, US
164.68.112.107|/Nix Core:3.0.4/|70021|51167|164.68.112.0/23|DE|ripencc|1992-12-17|CONTABO, DE
176.58.118.118|/Nix Core:3.0.7/|70021|63949|176.58.96.0/19|GB|ripencc|2011-06-06|LINODE-AP Linode, LLC, US
178.33.57.117|/Nix Core:3.0.8/|70021|16276|178.32.0.0/15|FR|ripencc|2010-01-19|OVH, FR
178.63.235.194|/Nix Core:3.0.8/|70021|24940|178.63.0.0/16|DE|ripencc|2010-03-02|HETZNER-AS, DE
18.27.197.252|/Nix Core:3.0.8/|70021|3|18.27.0.0/16|US|arin|1994-01-01|MIT-GATEWAYS, US
188.40.21.226|/Nix Core:3.0.8/|70021|24940|188.40.0.0/16|DE|ripencc|2009-04-23|HETZNER-AS, DE
192.166.245.176|/Nix Core:3.0.7/|70021|197706|192.166.245.0/24|DE|ripencc|2018-07-06|KEMINET, AL
195.201.126.237|/Nix Core:2.3.1/|70021|24940|195.201.0.0/16|DE|ripencc|1997-09-22|HETZNER-AS, DE
195.201.143.187|/Nix Core:3.0.8/|70021|24940|195.201.0.0/16|DE|ripencc|1997-09-22|HETZNER-AS, DE
199.247.24.103|/Nix Core:3.0.7/|70021|20473|199.247.24.0/21|EU|ripencc|1996-04-09|AS-CHOOPA, US
213.172.235.8|/Nix Core:3.0.8/|70021|3212|213.172.224.0/19|SI|ripencc|2003-02-17|TELEMACH Broadband Access & Carrier Services, SI
217.138.221.130|/Nix Core:3.0.8/|70021|9009|217.138.221.0/24|GB|ripencc|2001-01-31|M247, GB
41.165.130.186|/Nix Core:3.0.8/|70021|36937|41.164.0.0/15|MU|afrinic|2007-02-22|Neotel-AS, ZA
45.32.154.11|/Nix Core:3.0.7/|70021|20473|45.32.152.0/21|US|arin|2015-02-17|AS-CHOOPA, US
45.63.17.55|/Nix Core:3.0.8/|70021|20473|45.63.16.0/21|US|arin|2015-01-02|AS-CHOOPA, US
46.165.245.154|/Nix Core:3.0.8/|70021|28753|46.165.192.0/18|DE|ripencc|2010-12-13|LEASEWEB-DE-FRA-10, DE
5.79.109.48|/Nix Core:3.0.8/|70021|60781|5.79.64.0/18|NL|ripencc|2012-06-14|LEASEWEB-NL-AMS-01 Netherlands, NL
51.175.250.196|/Nix Core:3.0.8/|70021|29695|51.174.0.0/15|NO|ripencc|1993-09-01|ALTIBOX_AS Norway, NO
78.46.122.119|/Nix Core:2.3.1/|70021|24940|78.46.0.0/15|DE|ripencc|2007-04-16|HETZNER-AS, DE
78.46.175.23|/Nix Core:3.0.8/|70021|24940|78.46.0.0/15|DE|ripencc|2007-04-16|HETZNER-AS, DE
81.150.183.169|/Nix Core:3.0.8/|70021|2856|81.128.0.0/11|GB|ripencc|2002-07-25|BT-UK-AS BTnet UK Regional network, GB
81.167.167.198|/Nix Core:3.0.8/|70021|29695|81.166.0.0/15|NO|ripencc|2005-01-04|ALTIBOX_AS Norway, NO
81.8.37.250|/Nix Core:2.3.0/|70021|15924|81.8.37.0/24|TR|ripencc|2001-12-19|BORUSANTELEKOM-AS, TR
82.65.61.122|/Nix Core:3.0.8/|70021|12322|82.64.0.0/14|FR|ripencc|2003-04-03|PROXAD, FR
86.105.53.213|/Nix Core:3.0.7/|70021|200185|86.105.52.0/22|IT|ripencc|2005-04-18|XANDMAIL-ASN, DE
87.150.49.245|/Nix Core:3.0.8/|70021|3320|87.128.0.0/10|DE|ripencc|2005-05-03|DTAG Internet service provider operations, DE
88.204.1.34|/Nix Core:3.0.8/|70021|49980|88.204.0.0/21|RU|ripencc|2005-11-25|ARIEL-AS, RU
95.179.156.251|/Nix Core:3.0.8/|70021|20473|95.179.144.0/20|NL|ripencc|2009-01-22|AS-CHOOPA, US
95.216.213.245|/Nix Core:3.0.8/|70021|24940|95.216.0.0/16|DE|ripencc|2009-02-24|HETZNER-AS, DE
95.217.7.206|/Nix Core:3.0.8/|70021|24940|95.217.0.0/16|DE|ripencc|2009-02-24|HETZNER-AS, DE
95.217.85.169|/Nix Core:3.0.8/|70021|24940|95.217.0.0/16|DE|ripencc|2009-02-24|HETZNER-AS, DE
