# https://chainz.cryptoid.info/ and whois results
# NIX Core
IP Address|Subver|Version|ASN|BGP Prefix|CC|Registry|Allocated|AS Name
113.160.144.200|/Nix Core:3.0.8/|70021|45899|113.160.144.0/20|VN|apnic|2008-11-04|VNPT-AS-VN VNPT Corp, VN
116.203.195.47|/Nix Core:3.0.7/|70021|24940|116.203.0.0/16|DE|ripencc|2011-01-17|HETZNER-AS, DE
116.203.29.250|/Nix Core:3.0.8/|70021|24940|116.203.0.0/16|DE|ripencc|2011-01-17|HETZNER-AS, DE
134.122.124.214|/Nix Core:3.0.8/|70021|14061|134.122.112.0/20|US|arin|2019-09-06|DIGITALOCEAN-ASN, US
134.122.127.208|/Nix Core:3.0.8/|70021|14061|134.122.112.0/20|US|arin|2019-09-06|DIGITALOCEAN-ASN, US
139.162.202.24|/Nix Core:3.0.8/|70021|63949|139.162.192.0/19|NL|ripencc|1990-03-24|LINODE-AP Linode, LLC, US
159.69.27.155|/Nix Core:2.3.1/|70021|24940|159.69.0.0/16|DE|ripencc|1992-03-13|HETZNER-AS, DE
165.22.237.151|/Nix Core:3.0.8/|70021|14061|165.22.224.0/20|US|arin|2018-10-16|DIGITALOCEAN-ASN, US
167.71.230.189|/Nix Core:3.0.8/|70021|14061|167.71.224.0/20|US|arin|2019-04-24|DIGITALOCEAN-ASN, US
168.235.93.74|/Nix Core:3.0.8/|70021|3842|168.235.92.0/22|US|arin|2014-06-26|RAMNODE, US
174.138.50.26|/Nix Core:3.0.8/|70021|14061|174.138.48.0/20|US|arin|2016-04-12|DIGITALOCEAN-ASN, US
178.128.38.96|/Nix Core:3.0.8/|70021|14061|178.128.32.0/20|NL|ripencc|2010-03-03|DIGITALOCEAN-ASN, US
178.33.57.118|/Nix Core:3.0.8/|70021|16276|178.32.0.0/15|FR|ripencc|2010-01-19|OVH, FR
185.107.95.226|/Nix Core:3.0.8/|70021|43350|185.107.92.0/22|NL|ripencc|2015-07-03|NFORCE, NL
185.220.100.252|/Nix Core:3.0.7/|70021|205100|185.220.100.0/24|DE|ripencc|2017-09-12|F3NETZE, DE
185.38.175.71|/Nix Core:3.0.8/|70021|205235|185.38.175.0/24|DK|ripencc|2013-10-24|LABITAT, DK
185.99.253.72|/Nix Core:3.0.7/|70021|42831|185.99.252.0/22|US|ripencc|2015-05-12|UKSERVERS-AS UK Dedicated Servers, Hosting and Co-Location, GB
188.40.182.193|/Nix Core:3.0.8/|70021|24940|188.40.0.0/16|DE|ripencc|2009-04-23|HETZNER-AS, DE
188.40.21.229|/Nix Core:3.0.8/|70021|24940|188.40.0.0/16|DE|ripencc|2009-04-23|HETZNER-AS, DE
195.201.126.237|/Nix Core:2.3.1/|70021|24940|195.201.0.0/16|DE|ripencc|1997-09-22|HETZNER-AS, DE
203.220.163.95|/Nix Core:3.0.8/|70021|7545|203.220.162.0/23|AU|apnic|2001-02-20|TPG-INTERNET-AP TPG Telecom Limited, AU
213.172.235.8|/Nix Core:3.0.8/|70021|3212|213.172.224.0/19|SI|ripencc|2003-02-17|TELEMACH Broadband Access & Carrier Services, SI
24.217.226.202|/Nix Core:3.0.8/|70021|20115|24.217.0.0/16|US|arin|1999-02-22|CHARTER-20115, US
45.63.17.55|/Nix Core:3.0.8/|70021|20473|45.63.16.0/21|US|arin|2015-01-02|AS-CHOOPA, US
46.165.245.154|/Nix Core:3.0.7/|70021|28753|46.165.192.0/18|DE|ripencc|2010-12-13|LEASEWEB-DE-FRA-10, DE
46.212.200.61|/Nix Core:3.0.8/|70021|41164|46.212.128.0/17|NO|ripencc|2010-12-20|GET-NO GET Norway, NO
46.4.162.96|/Nix Core:3.0.8/|70021|24940|46.4.0.0/16|DE|ripencc|2010-08-19|HETZNER-AS, DE
46.4.162.98|/Nix Core:3.0.8/|70021|24940|46.4.0.0/16|DE|ripencc|2010-08-19|HETZNER-AS, DE
67.164.170.54|/Nix Core:3.0.8/|70021|7922|67.160.0.0/11|US|arin|2002-12-16|COMCAST-7922, US
67.205.149.128|/Nix Core:3.0.8/|70021|14061|67.205.144.0/20|US|arin|2016-04-12|DIGITALOCEAN-ASN, US
78.46.122.119|/Nix Core:2.3.1/|70021|24940|78.46.0.0/15|DE|ripencc|2007-04-16|HETZNER-AS, DE
83.179.219.107|/Nix Core:3.0.7/|70021|1257|83.176.0.0/12|SE|ripencc|2004-01-16|TELE2, EU
86.15.115.28|/Nix Core:3.0.8/|70021|5089|86.14.0.0/15|GB|ripencc|2005-03-29|NTL, GB
93.34.82.145|/Nix Core:3.0.8/|70021|12874|93.34.0.0/15|IT|ripencc|2008-02-25|FASTWEB, IT
93.90.203.235|/Nix Core:3.0.8/|70021|8560|93.90.192.0/20|GB|ripencc|2008-04-23|ONEANDONE-AS Brauerstrasse 48, DE
94.130.29.243|/Nix Core:3.0.7/|70021|24940|94.130.0.0/16|DE|ripencc|2008-06-23|HETZNER-AS, DE
95.216.127.181|/Nix Core:3.0.8/|70021|24940|95.216.0.0/16|DE|ripencc|2009-02-24|HETZNER-AS, DE
95.216.250.95|/Nix Core:3.0.8/|70021|24940|95.216.0.0/16|DE|ripencc|2009-02-24|HETZNER-AS, DE
95.217.12.90|/Nix Core:3.0.8/|70021|24940|95.217.0.0/16|DE|ripencc|2009-02-24|HETZNER-AS, DE
95.217.125.96|/Nix Core:3.0.8/|70021|24940|95.217.0.0/16|DE|ripencc|2009-02-24|HETZNER-AS, DE
95.217.97.214|/Nix Core:3.0.8/|70021|24940|95.217.0.0/16|DE|ripencc|2009-02-24|HETZNER-AS, DE
