# https://chainz.cryptoid.info/ and whois results
# NIX Core
IP Address|Subver|Version|ASN|BGP Prefix|CC|Registry|Allocated|AS Name
113.16.31.211|/Nix Core:3.0.8/|70021|4134|113.16.0.0/15|CN|apnic|2008-09-18|CHINANET-BACKBONE No.31,Jin-rong Street, CN
115.163.170.64|/Nix Core:3.0.8/|70021|2527|115.162.0.0/15|JP|apnic|2008-08-22|SO-NET So-net Entertainment Corporation, JP
116.202.100.164|/Nix Core:3.0.8/|70021|24940|116.202.0.0/16|DE|ripencc|2011-01-17|HETZNER-AS, DE
116.202.172.79|/Nix Core:3.0.8/|70021|24940|116.202.0.0/16|DE|ripencc|2011-01-17|HETZNER-AS, DE
116.203.51.139|/Nix Core:3.0.7/|70021|24940|116.203.0.0/16|DE|ripencc|2011-01-17|HETZNER-AS, DE
116.250.156.56|/Nix Core:3.0.8/|70021|24033|116.250.0.0/16|AU|apnic|2007-03-22|ACTIV8ME-AS-AP Australian Private Networks Pty Ltd, AU
138.201.84.40|/Nix Core:3.0.8/|70021|24940|138.201.0.0/16|DE|ripencc|1990-05-23|HETZNER-AS, DE
139.216.49.50|/Nix Core:3.0.8/|70021|9443|139.216.48.0/20|AU|apnic|2011-03-08|VOCUS-RETAIL-AU Vocus Retail, AU
144.202.92.115|/Nix Core:3.0.7/|70021|20473|144.202.80.0/20|US|arin|2018-02-05|AS-CHOOPA, US
144.202.96.69|/Nix Core:3.0.7/|70021|20473|144.202.96.0/20|US|arin|2018-02-05|AS-CHOOPA, US
144.202.99.93|/Nix Core:3.0.7/|70021|20473|144.202.96.0/20|US|arin|2018-02-05|AS-CHOOPA, US
159.69.137.136|/Nix Core:3.0.1/|70021|24940|159.69.0.0/16|DE|ripencc|1992-03-13|HETZNER-AS, DE
159.69.214.245|/Nix Core:3.0.8/|70021|24940|159.69.0.0/16|DE|ripencc|1992-03-13|HETZNER-AS, DE
160.16.176.85|/Nix Core:3.0.8/|70021|9370|160.16.128.0/17|JP|apnic|1992-06-10|SAKURA-B SAKURA Internet Inc., JP
164.68.112.107|/Nix Core:3.0.4/|70021|51167|164.68.112.0/23|DE|ripencc|1992-12-17|CONTABO, DE
176.223.143.91|/Nix Core:2.3.0.1/|70021|62282|176.223.128.0/20|LT|ripencc|2011-11-29|RACKRAY UAB Rakrejus, LT
176.76.243.200|/Nix Core:3.0.7/|70021|3212|176.76.0.0/16|SI|ripencc|2011-06-15|TELEMACH Broadband Access & Carrier Services, SI
185.81.165.18|/Nix Core:3.0.7/|70021|62282|185.81.164.0/22|LT|ripencc|2014-12-17|RACKRAY UAB Rakrejus, LT
188.116.25.97|/Nix Core:3.0.7/|70021|43333|188.116.25.0/24|PL|ripencc|2009-05-29|NEPHAX-AS, PL
195.201.128.52|/Nix Core:3.0.8/|70021|24940|195.201.0.0/16|DE|ripencc|1997-09-22|HETZNER-AS, DE
198.144.128.122|/Nix Core:3.0.8/|70021|55900|198.144.128.0/20|JP|apnic|1999-12-03|GLBB-JP GLBB Japan KK, JP
199.247.27.86|/Nix Core:3.0.7/|70021|20473|199.247.24.0/21|EU|ripencc|1996-04-09|AS-CHOOPA, US
199.247.30.134|/Nix Core:3.0.8/|70021|20473|199.247.24.0/21|EU|ripencc|1996-04-09|AS-CHOOPA, US
2.243.71.116|/Nix Core:3.0.8/|70021|6805|2.240.0.0/13|DE|ripencc|2010-12-13|TDDE-ASN1, DE
207.148.73.63|/Nix Core:3.0.7/|70021|20473|207.148.64.0/20|US|apnic|1996-06-07|AS-CHOOPA, US
210.55.57.107|/Nix Core:3.0.7/|70021|4771|210.55.57.0/24|NZ|apnic|1999-06-28|SPARKNZ Spark New Zealand Trading Ltd., NZ
23.101.233.199|/Nix Core:3.0.8/|70021|8075|23.100.0.0/15|US|arin|2013-06-18|MICROSOFT-CORP-MSN-AS-BLOCK, US
31.46.177.200|/Nix Core:3.0.7/|70021|5483|31.46.0.0/16|HU|ripencc|2011-03-21|MAGYAR-TELEKOM-MAIN-AS Magyar Telekom Nyrt., HU
46.254.64.201|/Nix Core:3.0.8/|70021|5588|46.254.64.0/21|CZ|ripencc|2010-12-17|GTSCE GTS Central Europe / Antel Germany, CZ
51.38.27.156|/Nix Core:3.0.7/|70021|16276|51.38.0.0/16|FR|ripencc|1993-09-01|OVH, FR
64.156.195.220|/Nix Core:3.0.8/|70021|21581|64.156.195.0/24|US|arin|2000-06-08|M5HOSTING, US
73.202.2.135|/Nix Core:3.0.7/|70021|7922|73.0.0.0/8|US|arin|2005-04-19|COMCAST-7922, US
78.46.122.119|/Nix Core:2.3.1/|70021|24940|78.46.0.0/15|DE|ripencc|2007-04-16|HETZNER-AS, DE
80.209.224.34|/Nix Core:2.3.0.1/|70021|62282|80.209.224.0/20|LT|ripencc|2001-12-12|RACKRAY UAB Rakrejus, LT
86.105.48.35|/Nix Core:3.0.7/|70021|200185|86.105.48.0/22|IT|ripencc|2005-04-18|XANDMAIL-ASN, DE
87.227.188.250|/Nix Core:3.0.8/|70021|29580|87.227.184.0/21|BG|ripencc|2005-07-12|HOMELAN-AS, BG
89.238.154.162|/Nix Core:3.0.7/|70021|9009|89.238.154.0/24|GB|ripencc|2006-07-28|M247, GB
95.179.133.47|/Nix Core:3.0.8/|70021|20473|95.179.128.0/20|NL|ripencc|2009-01-22|AS-CHOOPA, US
95.216.112.67|/Nix Core:3.0.8/|70021|24940|95.216.0.0/16|DE|ripencc|2009-02-24|HETZNER-AS, DE
95.217.67.243|/Nix Core:3.0.8/|70021|24940|95.217.0.0/16|DE|ripencc|2009-02-24|HETZNER-AS, DE
95.217.71.192|/Nix Core:3.0.8/|70021|24940|95.217.0.0/16|DE|ripencc|2009-02-24|HETZNER-AS, DE
95.217.85.169|/Nix Core:3.0.8/|70021|24940|95.217.0.0/16|DE|ripencc|2009-02-24|HETZNER-AS, DE
95.217.95.241|/Nix Core:3.0.8/|70021|24940|95.217.0.0/16|DE|ripencc|2009-02-24|HETZNER-AS, DE
