# https://chainz.cryptoid.info/ and whois results
# NIX Core
IP Address|Subver|Version|ASN|BGP Prefix|CC|Registry|Allocated|AS Name
104.230.120.101|/Nix Core:3.0.8/|70021|10796|104.230.0.0/17|US|arin|2014-10-07|TWC-10796-MIDWEST, US
104.248.194.27|/Nix Core:3.0.7/|70021|14061|104.248.192.0/20|US|arin|2018-08-06|DIGITALOCEAN-ASN, US
107.158.194.90|/Nix Core:3.0.8/|70021|62904|107.158.192.0/22|US|arin|2013-12-03|EONIX-COMMUNICATIONS-ASBLOCK-62904, US
116.203.38.225|/Nix Core:3.0.8/|70021|24940|116.203.0.0/16|DE|ripencc|2011-01-17|HETZNER-AS, DE
133.130.121.36|/Nix Core:3.0.3/|70021|7506|133.130.64.0/18|JP|apnic|1997-03-01|INTERQ GMO Internet,Inc, JP
144.202.99.93|/Nix Core:3.0.7/|70021|20473|144.202.96.0/20|US|arin|2018-02-05|AS-CHOOPA, US
149.28.72.195|/Nix Core:3.0.7/|70021|20473|149.28.64.0/19|US|arin|2018-05-04|AS-CHOOPA, US
165.22.225.213|/Nix Core:3.0.8/|70021|14061|165.22.224.0/20|US|arin|2018-10-16|DIGITALOCEAN-ASN, US
178.62.88.36|/Nix Core:3.0.8/|70021|14061|178.62.64.0/18|EU|ripencc|2010-02-26|DIGITALOCEAN-ASN, US
178.63.236.98|/Nix Core:3.0.8/|70021|24940|178.63.0.0/16|DE|ripencc|2010-03-02|HETZNER-AS, DE
179.83.188.88|/Nix Core:3.0.8/|70021|18881|179.83.160.0/19|BR|lacnic|2013-09-02|TELEFONICA BRASIL S.A, BR
185.203.118.235|/Nix Core:3.0.7/|70021|44901|185.203.118.0/24|CY|ripencc|2017-05-12|BELCLOUD, BG
185.220.100.254|/Nix Core:3.0.8/|70021|205100|185.220.100.0/24|DE|ripencc|2017-09-12|F3NETZE, DE
185.220.101.206|/Nix Core:3.0.8/|70021|208294|185.220.101.0/24|DE|ripencc|2017-09-12|ASMK, NL
185.220.101.4|/Nix Core:3.0.8/|70021|208294|185.220.101.0/24|DE|ripencc|2017-09-12|ASMK, NL
185.230.127.236|/Nix Core:3.0.7/|70021|9009|185.230.127.0/24|RO|ripencc|2017-11-08|M247, GB
185.36.170.93|/Nix Core:3.0.8/|70021|57367|185.36.168.0/22|PL|ripencc|2013-10-02|ECO-ATMAN-PL ECO-ATMAN-, PL
198.144.128.122|/Nix Core:3.0.7/|70021|55900|198.144.128.0/20|JP|apnic|1999-12-03|GLBB-JP GLBB Japan KK, JP
206.189.31.197|/Nix Core:3.0.8/|70021|14061|206.189.16.0/20|US|arin|1995-11-15|DIGITALOCEAN-ASN, US
210.55.57.107|/Nix Core:3.0.7/|70021|4771|210.55.57.0/24|NZ|apnic|1999-06-28|SPARKNZ Spark New Zealand Trading Ltd., NZ
217.138.219.135|/Nix Core:3.0.8/|70021|9009|217.138.219.0/24|GB|ripencc|2001-01-31|M247, GB
221.122.37.72|/Nix Core:3.0.7/|70021|23724|221.122.32.0/20|CN|apnic|2003-07-07|CHINANET-IDC-BJ-AP IDC, China Telecommunications Corporation, CN
31.15.240.199|/Nix Core:3.0.7/|70021|3212|31.15.128.0/17|SI|ripencc|2011-04-20|TELEMACH Broadband Access & Carrier Services, SI
45.77.98.228|/Nix Core:3.0.7/|70021|20473|45.77.96.0/20|US|arin|2015-04-24|AS-CHOOPA, US
45.81.148.22|/Nix Core:3.0.8/|70021|40676|45.81.148.0/24|NL|ripencc|2019-05-20|AS40676, US
46.4.205.24|/Nix Core:3.0.8/|70021|24940|46.4.0.0/16|DE|ripencc|2010-08-19|HETZNER-AS, DE
47.148.174.30|/Nix Core:3.0.7/|70021|5650|47.144.0.0/13|US|arin|2015-08-28|FRONTIER-FRTR, US
51.6.184.190|/Nix Core:3.0.8/|70021|6871|51.6.0.0/15|GB|ripencc|1993-09-01|PLUSNET UK Internet Service Provider, GB
51.79.86.177|/Nix Core:3.0.7/|70021|16276|51.79.0.0/17|CA|arin|2019-01-10|OVH, FR
62.171.148.97|/Nix Core:3.0.8/|70021|51167|62.171.148.0/23|DE|ripencc|2000-08-18|CONTABO, DE
67.161.34.97|/Nix Core:3.0.7/|70021|7922|67.160.0.0/11|US|arin|2002-12-16|COMCAST-7922, US
68.183.198.93|/Nix Core:3.0.8/|70021|14061|68.183.192.0/20|US|arin|2018-09-18|DIGITALOCEAN-ASN, US
75.185.136.222|/Nix Core:3.0.8/|70021|10796|75.185.128.0/18|US|arin|2006-08-16|TWC-10796-MIDWEST, US
78.46.122.119|/Nix Core:2.3.1/|70021|24940|78.46.0.0/15|DE|ripencc|2007-04-16|HETZNER-AS, DE
80.211.193.147|/Nix Core:3.0.7/|70021|24806|80.211.192.0/19|IT|ripencc|2001-12-12|INTERNET-CZ Ktis 2, 384 03 Ktis, CZ
81.167.167.198|/Nix Core:3.0.0/|70021|29695|81.166.0.0/15|NO|ripencc|2005-01-04|ALTIBOX_AS Norway, NO
81.8.37.250|/Nix Core:2.3.0/|70021|15924|81.8.37.0/24|TR|ripencc|2001-12-19|BORUSANTELEKOM-AS, TR
81.97.18.150|/Nix Core:3.0.7/|70021|5089|81.96.0.0/15|GB|ripencc|2002-06-14|NTL, GB
82.26.85.53|/Nix Core:3.0.8/|70021|5089|82.24.0.0/14|GB|ripencc|2003-02-28|NTL, GB
82.64.185.60|/Nix Core:3.0.8/|70021|12322|82.64.0.0/14|FR|ripencc|2003-04-03|PROXAD, FR
88.130.156.23|/Nix Core:3.0.7/|70021|8881|88.130.156.0/24|DE|ripencc|2005-10-17|VERSATEL, DE
89.212.119.170|/Nix Core:3.0.8/|70021|34779|89.212.64.0/18|SI|ripencc|2006-05-03|T-2-AS AS set propagated by T-2, d.o.o., SI
90.186.3.85|/Nix Core:3.0.8/|70021|3209|90.186.0.0/16|DE|ripencc|2006-11-09|VODANET International IP-Backbone of Vodafone, DE
95.168.164.219|/Nix Core:3.0.8/|70021|60781|95.168.160.0/20|NL|ripencc|2009-01-06|LEASEWEB-NL-AMS-01 Netherlands, NL
95.216.250.88|/Nix Core:3.0.8/|70021|24940|95.216.0.0/16|DE|ripencc|2009-02-24|HETZNER-AS, DE
95.217.125.98|/Nix Core:3.0.8/|70021|24940|95.217.0.0/16|DE|ripencc|2009-02-24|HETZNER-AS, DE
95.217.71.194|/Nix Core:3.0.8/|70021|24940|95.217.0.0/16|DE|ripencc|2009-02-24|HETZNER-AS, DE
95.90.243.211|/Nix Core:3.0.8/|70021|3209|95.88.0.0/14|DE|ripencc|2008-12-15|VODANET International IP-Backbone of Vodafone, DE
96.19.157.218|/Nix Core:3.0.8/|70021|11492|96.19.157.0/24|US|arin|2007-12-10|CABLEONE, US
98.181.208.51|/Nix Core:3.0.8/|70021|22773|98.181.128.0/17|US|arin|2007-07-20|ASN-CXA-ALL-CCI-22773-RDC, US
