# https://chainz.cryptoid.info/ and whois results
# NIX Core
IP Address|Subver|Version|ASN|BGP Prefix|CC|Registry|Allocated|AS Name
104.248.251.174|/Nix Core:3.0.8/|70021|14061|104.248.240.0/20|US|arin|2018-08-06|DIGITALOCEAN-ASN, US
116.202.100.164|/Nix Core:3.0.8/|70021|24940|116.202.0.0/16|DE|ripencc|2011-01-17|HETZNER-AS, DE
116.202.172.79|/Nix Core:3.0.8/|70021|24940|116.202.0.0/16|DE|ripencc|2011-01-17|HETZNER-AS, DE
116.203.51.139|/Nix Core:3.0.7/|70021|24940|116.203.0.0/16|DE|ripencc|2011-01-17|HETZNER-AS, DE
116.250.156.56|/Nix Core:3.0.8/|70021|24033|116.250.0.0/16|AU|apnic|2007-03-22|ACTIV8ME-AS-AP Australian Private Networks Pty Ltd, AU
117.20.69.56|/Nix Core:3.0.7/|70021|4764|117.20.68.0/22|AU|apnic|2007-06-18|WIDEBAND-AS-AP Aussie Broadband, AU
139.216.49.50|/Nix Core:3.0.8/|70021|9443|139.216.48.0/20|AU|apnic|2011-03-08|VOCUS-RETAIL-AU Vocus Retail, AU
142.93.110.203|/Nix Core:3.0.8/|70021|14061|142.93.96.0/20|US|arin|2018-07-12|DIGITALOCEAN-ASN, US
144.202.92.115|/Nix Core:3.0.7/|70021|20473|144.202.80.0/20|US|arin|2018-02-05|AS-CHOOPA, US
144.202.96.69|/Nix Core:3.0.7/|70021|20473|144.202.96.0/20|US|arin|2018-02-05|AS-CHOOPA, US
144.202.99.93|/Nix Core:3.0.7/|70021|20473|144.202.96.0/20|US|arin|2018-02-05|AS-CHOOPA, US
159.69.137.136|/Nix Core:3.0.1/|70021|24940|159.69.0.0/16|DE|ripencc|1992-03-13|HETZNER-AS, DE
159.69.221.181|/Nix Core:3.0.8/|70021|24940|159.69.0.0/16|DE|ripencc|1992-03-13|HETZNER-AS, DE
160.16.176.85|/Nix Core:3.0.8/|70021|9370|160.16.128.0/17|JP|apnic|1992-06-10|SAKURA-B SAKURA Internet Inc., JP
176.223.143.91|/Nix Core:2.3.0.1/|70021|62282|176.223.128.0/20|LT|ripencc|2011-11-29|RACKRAY UAB Rakrejus, LT
178.62.29.185|/Nix Core:3.0.8/|70021|14061|178.62.0.0/18|EU|ripencc|2010-02-26|DIGITALOCEAN-ASN, US
185.220.100.247|/Nix Core:3.0.7/|70021|205100|185.220.100.0/24|DE|ripencc|2017-09-12|F3NETZE, DE
188.116.25.97|/Nix Core:3.0.7/|70021|43333|188.116.25.0/24|PL|ripencc|2009-05-29|NEPHAX-AS, PL
195.201.128.52|/Nix Core:3.0.8/|70021|24940|195.201.0.0/16|DE|ripencc|1997-09-22|HETZNER-AS, DE
199.247.27.86|/Nix Core:3.0.7/|70021|20473|199.247.24.0/21|EU|ripencc|1996-04-09|AS-CHOOPA, US
207.148.73.63|/Nix Core:3.0.7/|70021|20473|207.148.64.0/20|US|apnic|1996-06-07|AS-CHOOPA, US
207.180.243.58|/Nix Core:3.0.7/|70021|51167|207.180.242.0/23|DE|ripencc|1996-08-21|CONTABO, DE
213.172.235.8|/Nix Core:3.0.7/|70021|3212|213.172.224.0/19|SI|ripencc|2003-02-17|TELEMACH Broadband Access & Carrier Services, SI
41.165.130.186|/Nix Core:3.0.7/|70021|36937|41.164.0.0/15|ZA|afrinic|2007-02-22|Neotel-AS, ZA
46.254.64.201|/Nix Core:3.0.8/|70021|5588|46.254.64.0/21|CZ|ripencc|2010-12-17|GTSCE GTS Central Europe / Antel Germany, CZ
5.28.98.117|/Nix Core:3.0.8/|70021|20880|5.28.96.0/19|DE|ripencc|2012-05-08|TELECOLUMBUS, DE
50.198.93.73|/Nix Core:3.0.7/|70021|7922|50.128.0.0/9|US|arin|2010-10-21|COMCAST-7922, US
51.38.27.156|/Nix Core:3.0.7/|70021|16276|51.38.0.0/16|FR|ripencc|1993-09-01|OVH, FR
64.156.195.220|/Nix Core:3.0.8/|70021|21581|64.156.195.0/24|US|arin|2000-06-08|M5HOSTING, US
65.30.18.205|/Nix Core:3.0.7/|70021|10796|65.30.0.0/17|US|arin|2001-02-08|TWC-10796-MIDWEST, US
73.202.2.135|/Nix Core:3.0.7/|70021|7922|73.0.0.0/8|US|arin|2005-04-19|COMCAST-7922, US
77.170.132.132|/Nix Core:3.0.7/|70021|1136|77.168.0.0/14|NL|ripencc|2006-11-02|KPN KPN National, EU
78.46.122.119|/Nix Core:2.3.1/|70021|24940|78.46.0.0/15|DE|ripencc|2007-04-16|HETZNER-AS, DE
80.209.224.34|/Nix Core:2.3.0.1/|70021|62282|80.209.224.0/20|LT|ripencc|2001-12-12|RACKRAY UAB Rakrejus, LT
84.179.170.19|/Nix Core:3.0.8/|70021|3320|84.128.0.0/10|DE|ripencc|2004-03-10|DTAG Internet service provider operations, DE
88.130.157.72|/Nix Core:3.0.7/|70021|8881|88.130.157.0/24|DE|ripencc|2005-10-17|VERSATEL, DE
95.148.198.99|/Nix Core:3.0.7/|70021|12576|95.148.0.0/16|GB|ripencc|2009-01-19|EE Ltd, GB
95.216.112.67|/Nix Core:3.0.8/|70021|24940|95.216.0.0/16|DE|ripencc|2009-02-24|HETZNER-AS, DE
95.217.67.243|/Nix Core:3.0.8/|70021|24940|95.217.0.0/16|DE|ripencc|2009-02-24|HETZNER-AS, DE
95.217.85.169|/Nix Core:3.0.8/|70021|24940|95.217.0.0/16|DE|ripencc|2009-02-24|HETZNER-AS, DE
95.217.95.241|/Nix Core:3.0.8/|70021|24940|95.217.0.0/16|DE|ripencc|2009-02-24|HETZNER-AS, DE
