# https://chainz.cryptoid.info/ and whois results
# NIX Core
IP Address|Subver|Version|ASN|BGP Prefix|CC|Registry|Allocated|AS Name
113.160.144.200|/Nix Core:3.0.8/|70021|45899|113.160.128.0/19|VN|apnic|2008-11-04|VNPT-AS-VN VNPT Corp, VN
116.202.172.79|/Nix Core:3.0.8/|70021|24940|116.202.0.0/16|DE|ripencc|2011-01-17|HETZNER-AS, DE
116.203.155.44|/Nix Core:3.0.8/|70021|24940|116.203.0.0/16|DE|ripencc|2011-01-17|HETZNER-AS, DE
138.201.205.150|/Nix Core:3.0.8/|70021|24940|138.201.0.0/16|DE|ripencc|1990-05-23|HETZNER-AS, DE
139.216.49.50|/Nix Core:3.0.8/|70021|9443|139.216.48.0/20|AU|apnic|2011-03-08|VOCUS-RETAIL-AU Vocus Retail, AU
139.59.46.156|/Nix Core:3.0.8/|70021|14061|139.59.32.0/20|SG|apnic|1990-06-27|DIGITALOCEAN-ASN, US
142.93.234.102|/Nix Core:3.0.8/|70021|14061|142.93.224.0/20|US|arin|2018-07-12|DIGITALOCEAN-ASN, US
159.69.27.155|/Nix Core:2.3.1/|70021|24940|159.69.0.0/16|DE|ripencc|1992-03-13|HETZNER-AS, DE
162.194.23.64|/Nix Core:3.0.7/|70021|7018|162.192.0.0/12|US|arin|2013-03-01|ATT-INTERNET4, US
164.68.112.107|/Nix Core:3.0.4/|70021|51167|164.68.112.0/23|DE|ripencc|1992-12-17|CONTABO, DE
167.179.137.92|/Nix Core:3.0.5/|70021|4764|167.179.136.0/22|AU|apnic|1993-09-08|WIDEBAND-AS-AP Aussie Broadband, AU
176.223.143.91|/Nix Core:2.3.0.1/|70021|62282|176.223.128.0/20|LT|ripencc|2011-11-29|RACKRAY UAB Rakrejus, LT
178.128.230.213|/Nix Core:3.0.8/|70021|14061|178.128.224.0/20|NL|ripencc|2010-03-03|DIGITALOCEAN-ASN, US
178.62.20.102|/Nix Core:3.0.8/|70021|14061|178.62.0.0/18|EU|ripencc|2010-02-26|DIGITALOCEAN-ASN, US
178.63.236.97|/Nix Core:3.0.8/|70021|24940|178.63.0.0/16|DE|ripencc|2010-03-02|HETZNER-AS, DE
185.220.100.250|/Nix Core:3.0.7/|70021|205100|185.220.100.0/24|DE|ripencc|2017-09-12|F3NETZE, DE
185.220.101.130|/Nix Core:3.0.7/|70021|208294|185.220.101.0/24|DE|ripencc|2017-09-12|ASMK, NL
185.220.101.200|/Nix Core:3.0.8/|70021|208294|185.220.101.0/24|DE|ripencc|2017-09-12|ASMK, NL
185.220.101.213|/Nix Core:3.0.8/|70021|208294|185.220.101.0/24|DE|ripencc|2017-09-12|ASMK, NL
187.180.147.142|/Nix Core:3.0.7/|70021|28573|187.180.128.0/19|BR|lacnic|2014-06-02|CLARO S.A., BR
199.247.27.86|/Nix Core:3.0.7/|70021|20473|199.247.24.0/21|EU|ripencc|1996-04-09|AS-CHOOPA, US
207.246.89.56|/Nix Core:3.0.7/|70021|20473|207.246.80.0/20|US|arin|2017-10-13|AS-CHOOPA, US
209.250.241.70|/Nix Core:3.0.7/|70021|20473|209.250.240.0/21|EU|ripencc|2006-06-08|AS-CHOOPA, US
213.172.235.8|/Nix Core:3.0.7/|70021|3212|213.172.224.0/19|SI|ripencc|2003-02-17|TELEMACH Broadband Access & Carrier Services, SI
23.129.64.187|/Nix Core:3.0.7/|70021|396507|23.129.64.0/24|US|arin|2017-07-19|EMERALD-ONION, US
24.117.48.172|/Nix Core:3.0.7/|70021|11492|24.117.48.0/24|US|arin|1996-09-25|CABLEONE, US
45.148.10.30|/Nix Core:3.0.8/|70021|48090|45.148.10.0/24|IT|ripencc|2019-09-02|PPTECHNOLOGY, GB
46.254.64.201|/Nix Core:3.0.8/|70021|5588|46.254.64.0/21|CZ|ripencc|2010-12-17|GTSCE GTS Central Europe / Antel Germany, CZ
47.153.32.91|/Nix Core:3.0.7/|70021|5650|47.152.0.0/14|US|arin|2015-08-28|FRONTIER-FRTR, US
50.198.93.73|/Nix Core:3.0.7/|70021|7922|50.128.0.0/9|US|arin|2010-10-21|COMCAST-7922, US
51.38.27.156|/Nix Core:3.0.7/|70021|16276|51.38.0.0/16|FR|ripencc|1993-09-01|OVH, FR
51.75.52.118|/Nix Core:3.0.8/|70021|16276|51.75.0.0/16|FR|ripencc|1993-09-01|OVH, FR
67.205.135.89|/Nix Core:3.0.7/|70021|14061|67.205.128.0/20|US|arin|2016-04-12|DIGITALOCEAN-ASN, US
73.12.132.47|/Nix Core:3.0.8/|70021|7922|73.0.0.0/8|US|arin|2005-04-19|COMCAST-7922, US
77.20.129.42|/Nix Core:3.0.7/|70021|31334|77.20.129.0/24|DE|ripencc|2008-04-08|KABELDEUTSCHLAND-AS, DE
77.247.181.162|/Nix Core:3.0.8/|70021|43350|77.247.176.0/21|NL|ripencc|2007-06-26|NFORCE, NL
78.46.122.119|/Nix Core:2.3.1/|70021|24940|78.46.0.0/15|DE|ripencc|2007-04-16|HETZNER-AS, DE
82.119.26.208|/Nix Core:3.0.8/|70021|20880|82.119.16.0/20|DE|ripencc|2004-02-16|TELECOLUMBUS, DE
84.82.74.227|/Nix Core:3.0.7/|70021|1136|84.80.0.0/13|NL|ripencc|2004-03-17|KPN KPN National, EU
86.105.48.35|/Nix Core:3.0.7/|70021|200185|86.105.48.0/22|IT|ripencc|2005-04-18|XANDMAIL-ASN, DE
89.98.182.108|/Nix Core:3.0.8/|70021|6830|89.98.0.0/16|NL|ripencc|2006-02-20|LGI-UPC formerly known as UPC Broadband Holding B.V., AT
94.242.195.227|/Nix Core:3.0.8/|70021|5577|94.242.192.0/18|LU|ripencc|2008-10-21|ROOT, LU
95.148.198.99|/Nix Core:3.0.7/|70021|12576|95.148.0.0/16|GB|ripencc|2009-01-19|EE Ltd, GB
95.179.156.251|/Nix Core:3.0.8/|70021|20473|95.179.144.0/20|NL|ripencc|2009-01-22|AS-CHOOPA, US
95.216.112.67|/Nix Core:3.0.8/|70021|24940|95.216.0.0/16|DE|ripencc|2009-02-24|HETZNER-AS, DE
95.216.127.188|/Nix Core:3.0.8/|70021|24940|95.216.0.0/16|DE|ripencc|2009-02-24|HETZNER-AS, DE
95.216.201.140|/Nix Core:3.0.8/|70021|24940|95.216.0.0/16|DE|ripencc|2009-02-24|HETZNER-AS, DE
95.217.85.169|/Nix Core:3.0.8/|70021|24940|95.217.0.0/16|DE|ripencc|2009-02-24|HETZNER-AS, DE
