# https://chainz.cryptoid.info/ and whois results
# NIX Core
IP Address|Subver|Version|ASN|BGP Prefix|CC|Registry|Allocated|AS Name
104.244.78.231|/Nix Core:3.0.8/|70021|53667|104.244.78.0/24|US|arin|2014-11-10|PONYNET, US
104.248.194.27|/Nix Core:3.0.7/|70021|14061|104.248.192.0/20|US|arin|2018-08-06|DIGITALOCEAN-ASN, US
107.189.10.245|/Nix Core:3.0.8/|70021|53667|107.189.8.0/22|US|arin|2014-04-17|PONYNET, US
116.203.35.24|/Nix Core:3.0.8/|70021|24940|116.203.0.0/16|DE|ripencc|2011-01-17|HETZNER-AS, DE
128.199.233.107|/Nix Core:3.0.8/|70021|14061|128.199.192.0/18|GB|ripencc|1999-04-12|DIGITALOCEAN-ASN, US
134.122.124.214|/Nix Core:3.0.8/|70021|14061|134.122.112.0/20|US|arin|2019-09-06|DIGITALOCEAN-ASN, US
136.55.181.197|/Nix Core:3.0.8/|70021|16591|136.55.176.0/20|US|arin|2015-10-06|GOOGLE-FIBER, US
144.202.99.93|/Nix Core:3.0.7/|70021|20473|144.202.96.0/20|US|arin|2018-02-05|AS-CHOOPA, US
144.217.88.202|/Nix Core:3.0.7/|70021|16276|144.217.0.0/16|CA|arin|2016-09-07|OVH, FR
164.68.112.107|/Nix Core:3.0.4/|70021|51167|164.68.112.0/23|DE|ripencc|1992-12-17|CONTABO, DE
165.22.225.213|/Nix Core:3.0.8/|70021|14061|165.22.224.0/20|US|arin|2018-10-16|DIGITALOCEAN-ASN, US
166.175.189.29|/Nix Core:3.0.8/|70021|20057|166.175.188.0/22|US|arin|1993-07-09|ATT-MOBILITY-LLC-AS20057, US
167.86.88.151|/Nix Core:3.0.8/|70021|51167|167.86.88.0/23|DE|ripencc|1993-05-14|CONTABO, DE
176.58.97.244|/Nix Core:3.0.7/|70021|63949|176.58.96.0/19|GB|ripencc|2011-06-06|LINODE-AP Linode, LLC, US
179.83.188.88|/Nix Core:3.0.8/|70021|18881|179.83.160.0/19|BR|lacnic|2013-09-02|TELEFONICA BRASIL S.A, BR
185.220.100.254|/Nix Core:3.0.8/|70021|205100|185.220.100.0/24|DE|ripencc|2017-09-12|F3NETZE, DE
188.40.21.226|/Nix Core:3.0.8/|70021|24940|188.40.0.0/16|DE|ripencc|2009-04-23|HETZNER-AS, DE
206.189.31.197|/Nix Core:3.0.8/|70021|14061|206.189.16.0/20|US|arin|1995-11-15|DIGITALOCEAN-ASN, US
213.239.209.41|/Nix Core:3.0.8/|70021|24940|213.239.192.0/18|DE|ripencc|2003-05-28|HETZNER-AS, DE
221.122.37.72|/Nix Core:3.0.7/|70021|23724|221.122.32.0/20|CN|apnic|2003-07-07|CHINANET-IDC-BJ-AP IDC, China Telecommunications Corporation, CN
31.15.240.199|/Nix Core:3.0.7/|70021|3212|31.15.128.0/17|SI|ripencc|2011-04-20|TELEMACH Broadband Access & Carrier Services, SI
45.63.17.55|/Nix Core:3.0.8/|70021|20473|45.63.16.0/21|US|arin|2015-01-02|AS-CHOOPA, US
45.77.98.228|/Nix Core:3.0.7/|70021|20473|45.77.96.0/20|US|arin|2015-04-24|AS-CHOOPA, US
46.4.205.24|/Nix Core:3.0.8/|70021|24940|46.4.0.0/16|DE|ripencc|2010-08-19|HETZNER-AS, DE
47.148.174.30|/Nix Core:3.0.7/|70021|5650|47.144.0.0/13|US|arin|2015-08-28|FRONTIER-FRTR, US
51.6.184.190|/Nix Core:3.0.8/|70021|6871|51.6.0.0/15|GB|ripencc|1993-09-01|PLUSNET UK Internet Service Provider, GB
66.42.69.195|/Nix Core:3.0.7/|70021|20473|66.42.64.0/20|US|arin|2018-05-07|AS-CHOOPA, US
67.164.170.54|/Nix Core:3.0.8/|70021|7922|67.160.0.0/11|US|arin|2002-12-16|COMCAST-7922, US
68.183.198.93|/Nix Core:3.0.8/|70021|14061|68.183.192.0/20|US|arin|2018-09-18|DIGITALOCEAN-ASN, US
81.167.167.198|/Nix Core:3.0.0/|70021|29695|81.166.0.0/15|NO|ripencc|2005-01-04|ALTIBOX_AS Norway, NO
85.144.32.200|/Nix Core:3.0.7/|70021|50266|85.144.0.0/15|NL|ripencc|2004-10-06|TMOBILE-THUIS, NL
95.168.164.219|/Nix Core:3.0.8/|70021|60781|95.168.160.0/20|NL|ripencc|2009-01-06|LEASEWEB-NL-AMS-01 Netherlands, NL
95.217.71.194|/Nix Core:3.0.8/|70021|24940|95.217.0.0/16|DE|ripencc|2009-02-24|HETZNER-AS, DE
