# https://chainz.cryptoid.info/ and whois results
# NIX Core
IP Address|Subver|Version|ASN|BGP Prefix|CC|Registry|Allocated|AS Name
116.203.155.44|/Nix Core:3.0.8/|70021|24940|116.203.0.0/16|DE|ripencc|2011-01-17|HETZNER-AS, DE
116.203.195.47|/Nix Core:3.0.7/|70021|24940|116.203.0.0/16|DE|ripencc|2011-01-17|HETZNER-AS, DE
139.59.46.156|/Nix Core:3.0.8/|70021|14061|139.59.32.0/20|SG|apnic|1990-06-27|DIGITALOCEAN-ASN, US
159.69.137.136|/Nix Core:3.0.1/|70021|24940|159.69.0.0/16|DE|ripencc|1992-03-13|HETZNER-AS, DE
164.68.112.107|/Nix Core:3.0.4/|70021|51167|164.68.112.0/23|DE|ripencc|1992-12-17|CONTABO, DE
176.58.114.140|/Nix Core:3.0.7/|70021|63949|176.58.96.0/19|GB|ripencc|2011-06-06|LINODE-AP Linode, LLC, US
178.62.20.102|/Nix Core:3.0.8/|70021|14061|178.62.0.0/18|EU|ripencc|2010-02-26|DIGITALOCEAN-ASN, US
18.222.237.36|/Nix Core:3.0.4/|70021|16509|18.220.0.0/14|US|arin|2018-06-29|AMAZON-02, US
185.220.101.195|/Nix Core:3.0.8/|70021|208294|185.220.101.0/24|DE|ripencc|2017-09-12|ASMK, NL
195.201.126.237|/Nix Core:2.3.1/|70021|24940|195.201.0.0/16|DE|ripencc|1997-09-22|HETZNER-AS, DE
199.247.27.86|/Nix Core:3.0.7/|70021|20473|199.247.24.0/21|EU|ripencc|1996-04-09|AS-CHOOPA, US
206.189.144.215|/Nix Core:3.0.8/|70021|14061|206.189.144.0/20|US|arin|1995-11-15|DIGITALOCEAN-ASN, US
207.246.89.56|/Nix Core:3.0.7/|70021|20473|207.246.80.0/20|US|arin|2017-10-13|AS-CHOOPA, US
209.250.241.70|/Nix Core:3.0.7/|70021|20473|209.250.240.0/21|EU|ripencc|2006-06-08|AS-CHOOPA, US
213.172.235.8|/Nix Core:3.0.7/|70021|3212|213.172.224.0/19|SI|ripencc|2003-02-17|TELEMACH Broadband Access & Carrier Services, SI
23.129.64.187|/Nix Core:3.0.7/|70021|396507|23.129.64.0/24|US|arin|2017-07-19|EMERALD-ONION, US
24.117.48.172|/Nix Core:3.0.7/|70021|11492|24.117.48.0/24|US|arin|1996-09-25|CABLEONE, US
45.76.149.50|/Nix Core:3.0.7/|70021|20473|45.76.144.0/21|US|arin|2015-04-24|AS-CHOOPA, US
46.254.64.201|/Nix Core:3.0.8/|70021|5588|46.254.64.0/21|CZ|ripencc|2010-12-17|GTSCE GTS Central Europe / Antel Germany, CZ
47.153.32.91|/Nix Core:3.0.7/|70021|5650|47.152.0.0/14|US|arin|2015-08-28|FRONTIER-FRTR, US
50.198.93.73|/Nix Core:3.0.7/|70021|7922|50.128.0.0/9|US|arin|2010-10-21|COMCAST-7922, US
51.38.27.156|/Nix Core:3.0.7/|70021|16276|51.38.0.0/16|FR|ripencc|1993-09-01|OVH, FR
51.75.52.118|/Nix Core:3.0.8/|70021|16276|51.75.0.0/16|FR|ripencc|1993-09-01|OVH, FR
59.153.241.235|/Nix Core:3.0.8/|70021|131429|59.153.241.0/24|VN|apnic|2015-10-22|MOBIFONE-AS-VN MOBIFONE Corporation, VN
62.68.195.79|/Nix Core:3.0.7/|70021|56833|62.68.192.0/19|AT|ripencc|2009-02-12|MIEX-AS mieX.at, AT
67.164.170.54|/Nix Core:3.0.8/|70021|7922|67.160.0.0/11|US|arin|2002-12-16|COMCAST-7922, US
67.205.135.89|/Nix Core:3.0.7/|70021|14061|67.205.128.0/20|US|arin|2016-04-12|DIGITALOCEAN-ASN, US
72.197.71.252|/Nix Core:3.0.7/|70021|22773|72.197.0.0/16|US|arin|2005-08-03|ASN-CXA-ALL-CCI-22773-RDC, US
77.20.129.42|/Nix Core:3.0.7/|70021|31334|77.20.129.0/24|DE|ripencc|2008-04-08|KABELDEUTSCHLAND-AS, DE
78.46.122.119|/Nix Core:2.3.1/|70021|24940|78.46.0.0/15|DE|ripencc|2007-04-16|HETZNER-AS, DE
80.209.224.34|/Nix Core:2.3.0.1/|70021|62282|80.209.224.0/20|LT|ripencc|2001-12-12|RACKRAY UAB Rakrejus, LT
81.167.167.198|/Nix Core:3.0.0/|70021|29695|81.166.0.0/15|NO|ripencc|2005-01-04|ALTIBOX_AS Norway, NO
82.119.26.208|/Nix Core:3.0.8/|70021|20880|82.119.16.0/20|DE|ripencc|2004-02-16|TELECOLUMBUS, DE
86.105.48.35|/Nix Core:3.0.7/|70021|200185|86.105.48.0/22|IT|ripencc|2005-04-18|XANDMAIL-ASN, DE
95.179.156.251|/Nix Core:3.0.8/|70021|20473|95.179.144.0/20|NL|ripencc|2009-01-22|AS-CHOOPA, US
95.216.112.67|/Nix Core:3.0.8/|70021|24940|95.216.0.0/16|DE|ripencc|2009-02-24|HETZNER-AS, DE
95.216.127.188|/Nix Core:3.0.8/|70021|24940|95.216.0.0/16|DE|ripencc|2009-02-24|HETZNER-AS, DE
95.217.125.96|/Nix Core:3.0.8/|70021|24940|95.217.0.0/16|DE|ripencc|2009-02-24|HETZNER-AS, DE
