# https://chainz.cryptoid.info/ and whois results
# Photon
IP Address|Subver|Version|ASN|BGP Prefix|CC|Registry|Allocated|AS Name
104.156.255.123|/Photon:0.8.9.7/|70001|20473|104.156.254.0/23|US|arin|2014-07-22|AS-CHOOPA, US
104.238.177.36|/Photon:0.8.9.7/|70001|20473|104.238.176.0/23|US|arin|2014-11-13|AS-CHOOPA, US
107.170.219.99|/Photon:0.8.9.3/|70001|14061|107.170.192.0/18|US|arin|2013-12-30|DIGITALOCEAN-ASN, US
108.61.214.31|/Photon:0.8.9.7/|70001|20473|108.61.214.0/24|US|arin|2010-12-08|AS-CHOOPA, US
120.88.157.101|/Photon:0.8.9.7/|70001|7545|120.88.156.0/23|AU|apnic|2008-03-28|TPG-INTERNET-AP TPG Telecom Limited, AU
146.185.135.24|/Photon:0.8.9.7/|70001|14061|146.185.128.0/19|US|ripencc|2011-07-13|DIGITALOCEAN-ASN, US
149.28.19.72|/Photon:0.8.9.7/|70001|20473|149.28.16.0/20|US|arin|2018-05-04|AS-CHOOPA, US
156.146.56.131|/Photon:0.8.9.7/|70001|60068|156.146.56.0/23|GB|ripencc|1990-02-05|CDN77 (^_^)/, GB
171.6.235.187|/Photon:0.8.9.7/|70001|45629|171.6.0.0/16|TH|apnic|2011-03-07|JASTEL-NETWORK-TH-AP JasTel Network International Gateway, TH
172.249.42.136|/Photon:0.8.9.6/|70001|20001|172.248.0.0/14|US|arin|2013-03-13|TWC-20001-PACWEST, US
178.63.11.230|/Photon:0.8.9.7/|70001|24940|178.63.0.0/16|DE|ripencc|2010-03-02|HETZNER-AS, DE
198.27.70.189|/Photon:0.8.9.5/|70001|16276|198.27.64.0/18|CA|arin|2012-08-28|OVH, FR
220.253.5.204|/Photon:0.8.9.7/|70001|7545|220.253.4.0/22|AU|apnic|2004-06-25|TPG-INTERNET-AP TPG Telecom Limited, AU
23.95.229.144|/Photon:0.8.9.7/|70001|36352|23.95.224.0/20|US|arin|2013-08-16|AS-COLOCROSSING, US
45.32.196.227|/Photon:0.8.9.7/|70001|20473|45.32.192.0/20|US|arin|2015-02-17|AS-CHOOPA, US
45.32.69.42|/Photon:0.8.9.7/|70001|20473|45.32.64.0/19|US|arin|2015-02-17|AS-CHOOPA, US
45.76.42.149|/Photon:0.8.9.7/|70001|20473|45.76.40.0/22|US|arin|2015-04-24|AS-CHOOPA, US
46.101.235.143|/Photon:0.8.9.7/|70001|14061|46.101.128.0/17|US|ripencc|2010-06-24|DIGITALOCEAN-ASN, US
51.195.7.48|/Photon:0.8.9.7/|70001|16276|51.195.0.0/16|FR|ripencc|1993-09-01|OVH, FR
72.2.242.204|/Photon:0.8.9.7/|70001|26727|72.2.240.0/20|US|arin|2008-05-19|BBTEL, US
78.141.243.202|/Photon:0.8.9.7/|70001|20473|78.141.224.0/19|US|ripencc|2007-07-30|AS-CHOOPA, US
80.114.174.211|/Photon:0.8.9.7/|70001|33915|80.114.160.0/19|NL|ripencc|2001-07-25|TNF-AS, NL
80.240.20.113|/Photon:0.8.9.7/|70001|20473|80.240.16.0/20|US|ripencc|2005-08-12|AS-CHOOPA, US
82.192.33.156|/Photon:0.8.9.7/|70001|3212|82.192.32.0/19|SI|ripencc|2003-09-18|TELEMACH Broadband Access & Carrier Services, SI
