# https://chainz.cryptoid.info/ and whois results
# Vertcoin
IP Address|Subver|Version|ASN|BGP Prefix|CC|Registry|Allocated|AS Name
1.182.245.28|/Satoshi:0.17.1/|70015|4134|1.180.0.0/14|CN|apnic|2010-06-28|CHINANET-BACKBONE No.31,Jin-rong Street, CN
100.35.20.24|/Satoshi:0.17.1/|70015|701|100.35.0.0/16|US|arin|2010-12-28|UUNET, US
103.119.50.141|/Satoshi:0.17.1/|70015|63859|103.119.50.0/24|ID|apnic|2018-07-17|MYREPUBLIC-AS-ID PT. Eka Mas Republik, ID
103.200.105.62|/Satoshi:0.17.1/|70015|55352|103.200.105.0/24|IN|apnic|2015-11-16|MCPL-IN Microscan Computers Private Limited, IN
104.139.97.182|/Satoshi:0.14.0/|70015|11426|104.139.0.0/16|US|arin|2014-06-12|TWC-11426-CAROLINAS, US
104.162.220.168|/Satoshi:0.11.1/|70015|12271|104.162.0.0/16|US|arin|2014-07-28|TWC-12271-NYC, US
108.17.137.70|/Satoshi:0.17.1/|70015|701|108.17.128.0/19|US|arin|2009-06-05|UUNET, US
108.24.96.15|/Satoshi:0.17.1/|70015|701|108.24.0.0/16|US|arin|2009-06-05|UUNET, US
109.184.185.183|/Satoshi:0.17.1/|70015|12389|109.184.128.0/17|RU|ripencc|2009-10-05|ROSTELECOM-AS, RU
109.189.239.84|/Satoshi:0.17.1/|70015|2119|109.189.0.0/16|NO|ripencc|2009-10-09|TELENOR-NEXTEL Telenor Norge AS, NO
109.237.36.8|/Satoshi:0.17.1/|70015|42560|109.237.32.0/20|BA|ripencc|2010-01-11|BA-TELEMACH-AS Telemach d.o.o. Sarajevo, BA
109.38.135.45|/Satoshi:0.17.1/|70015|15480|109.32.0.0/13|NL|ripencc|2009-08-31|VFNL-AS Vodafone NL Autonomous System, NL
113.128.188.214|/Satoshi:0.17.1/|70015|4134|113.128.0.0/15|CN|apnic|2008-11-03|CHINANET-BACKBONE No.31,Jin-rong Street, CN
113.141.200.94|/Satoshi:0.17.1/|70015|4134|113.136.0.0/13|CN|apnic|2008-11-06|CHINANET-BACKBONE No.31,Jin-rong Street, CN
124.182.24.60|/Satoshi:0.17.1/|70015|1221|124.176.0.0/12|AU|apnic|2006-05-12|ASN-TELSTRA Telstra Corporation Ltd, AU
124.189.46.224|/Satoshi:0.17.1/|70015|1221|124.176.0.0/12|AU|apnic|2006-06-20|ASN-TELSTRA Telstra Corporation Ltd, AU
137.147.215.172|/Satoshi:0.17.1/|70015|1221|137.147.0.0/16|AU|apnic|1989-11-30|ASN-TELSTRA Telstra Corporation Ltd, AU
138.199.30.23|/Satoshi:0.17.1/|70015|212238|138.199.30.0/24|GB|ripencc|1990-05-23|CDNEXT, GB
14.202.149.34|/Satoshi:0.17.1/|70015|7545|14.202.149.0/24|AU|apnic|2010-09-14|TPG-INTERNET-AP TPG Telecom Limited, AU
141.224.197.147|/Satoshi:0.17.1/|70015|15435|141.224.192.0/18|NL|ripencc|1990-08-03|KABELFOON DELTA Fiber Nederland, NL
142.117.136.123|/Satoshi:0.17.1/|70015|577|142.117.0.0/16|CA|arin|1993-04-05|BACOM, CA
142.90.4.236|/Satoshi:0.17.1/|70015|40788|142.90.0.0/18|CA|arin|2020-01-28|START-, CA
146.200.168.3|/Satoshi:0.17.1/|70015|6871|146.200.0.0/16|US|arin|1991-02-28|PLUSNET UK Internet Service Provider, GB
147.91.206.4|/Satoshi:0.17.1/|70015|13092|147.91.128.0/17|RS|ripencc|1991-07-19|UB-AS, RS
154.3.42.14|/Satoshi:0.17.1/|70015|174|154.3.0.0/16|US|arin|1992-02-05|COGENT-174, US
155.254.7.67|/Satoshi:0.17.1/|70015|46811|155.254.7.0/24|US|arin|2015-04-06|SILVERIP-ASN, US
155.4.146.12|/Satoshi:0.17.1/|70015|8473|155.4.0.0/16|NO|ripencc|1991-10-30|BAHNHOF http://www.bahnhof.net/, SE
156.146.58.47|/Satoshi:0.17.1/|70015|60068|156.146.58.0/23|GB|ripencc|1990-02-05|CDN77 (^_^)/, GB
158.174.25.175|/Satoshi:0.17.1/|70015|8473|158.174.0.0/16|GB|ripencc|1992-03-24|BAHNHOF http://www.bahnhof.net/, SE
159.138.111.140|/Satoshi:0.11.1/|70015|136907|159.138.96.0/20|SG|apnic|1992-04-20|HWCLOUDS-AS-AP HUAWEI CLOUDS, HK
159.48.55.196|/Satoshi:0.17.1/|70015|49981|159.48.55.0/24|DE|ripencc|1992-03-06|WORLDSTREAM, NL
161.97.127.179|/Satoshi:0.17.1/|70015|51167|161.97.126.0/23|DE|ripencc|1992-06-23|CONTABO, DE
170.80.224.11|/Satoshi:0.17.1/|70015|266385|170.80.224.0/22|BR|lacnic|2016-11-29|TR Servicos de Telecomunicacoes LTDA-ME, BR
172.103.251.61|/Satoshi:0.17.1/|70015|25668|172.103.128.0/17|CA|arin|2015-06-22|CIPHERKEY, CA
173.92.222.40|/Satoshi:0.17.1/|70015|11426|173.92.0.0/14|US|arin|2008-09-05|TWC-11426-CAROLINAS, US
174.103.141.169|/Satoshi:0.17.1/|70015|10796|174.103.128.0/19|US|arin|2009-02-26|TWC-10796-MIDWEST, US
174.110.45.197|/Satoshi:0.17.1/|70015|11426|174.108.0.0/14|US|arin|2009-02-26|TWC-11426-CAROLINAS, US
174.135.124.59|/Satoshi:0.17.1/|70015|33363|174.135.0.0/17|US|arin|2008-06-24|BHN-33363, US
174.29.101.71|/Satoshi:0.17.1/|70015|209|174.29.0.0/16|US|arin|2009-02-17|CENTURYLINK-US-LEGACY-QWEST, US
174.59.147.51|/Satoshi:0.17.1/|70015|7922|174.48.0.0/12|US|arin|2008-11-18|COMCAST-7922, US
175.139.64.168|/Satoshi:0.17.1/|70015|4788|175.139.64.0/18|MY|apnic|2010-01-08|TMNET-AS-AP TM Net, Internet Service Provider, MY
176.105.210.248|/Satoshi:0.17.1/|70015|24812|176.105.208.0/22|UA|ripencc|2012-01-05|ASHOMENET, UA
176.125.235.83|/Satoshi:0.17.1/|70015|50304|176.125.232.0/22|NO|ripencc|2018-10-17|BLIX, NO
176.37.66.237|/Satoshi:0.17.1/|70015|39608|176.37.0.0/16|UA|ripencc|2011-05-20|LANETUA-AS, UA
177.225.129.127|/Satoshi:0.17.1/|70015|13999|177.225.128.0/19|MX|lacnic|2013-02-20|Mega Cable, S.A. de C.V., MX
178.85.187.62|/Satoshi:0.17.1/|70015|33915|178.85.0.0/16|NL|ripencc|2009-12-19|TNF-AS, NL
181.26.200.168|/Satoshi:0.17.1/|70015|22927|181.24.0.0/14|AR|lacnic|2013-01-02|Telefonica de Argentina, AR
182.185.189.48|/Satoshi:0.17.1/|70015|17557|182.185.128.0/18|PK|apnic|2010-04-12|PKTELECOM-AS-PK Pakistan Telecommunication Company Limited, PK
184.103.140.97|/Satoshi:0.17.1/|70015|209|184.103.0.0/16|US|arin|2010-04-06|CENTURYLINK-US-LEGACY-QWEST, US
184.64.104.71|/Satoshi:0.17.1/|70015|6327|184.64.104.0/22|CA|arin|2010-01-15|SHAW, CA
184.98.81.133|/Satoshi:0.17.1/|70015|209|184.98.0.0/16|US|arin|2010-04-06|CENTURYLINK-US-LEGACY-QWEST, US
185.155.22.118|/Satoshi:0.17.1/|70015|202743|185.155.20.0/22|ES|ripencc|2016-06-06|APLIENFI, ES
185.198.56.49|/Satoshi:0.17.1/|70015|60117|185.198.56.0/24|AE|ripencc|2017-04-06|HS, AE
185.210.4.248|/Satoshi:0.17.1/|70015|197212|185.210.4.0/22|NO|ripencc|2017-06-23|AARDALSNETT-AS, NO
188.16.39.35|/Satoshi:0.17.1/|70015|12389|188.16.0.0/18|RU|ripencc|2009-02-03|ROSTELECOM-AS, RU
188.162.4.133|/Satoshi:0.17.1/|70015|31205|188.162.4.0/22|RU|ripencc|2009-05-20|MF-SIB-AS, RU
188.162.4.188|/Satoshi:0.17.1/|70015|31205|188.162.4.0/22|RU|ripencc|2009-05-20|MF-SIB-AS, RU
188.162.4.33|/Satoshi:0.17.1/|70015|31205|188.162.4.0/22|RU|ripencc|2009-05-20|MF-SIB-AS, RU
188.228.16.30|/Satoshi:0.17.1/|70015|29695|188.228.0.0/17|DK|ripencc|2009-07-28|ALTIBOX_AS Norway, NO
188.40.242.138|/Satoshi:0.17.1/|70015|24940|188.40.0.0/16|DE|ripencc|2009-04-23|HETZNER-AS, DE
189.6.15.220|/Satoshi:0.12.0/|70015|28573|189.6.0.0/17|BR|lacnic|2006-09-06|CLARO S.A., BR
190.96.1.19|/Satoshi:0.14.0/|70015|18822|190.96.1.0/24|CL|lacnic|2007-07-19|Manquehuenet, CL
191.177.130.42|/Satoshi:0.17.1/|70015|28573|191.177.0.0/16|BR|lacnic|2013-11-14|CLARO S.A., BR
191.96.170.53|/Satoshi:0.17.1/|70015|29802|191.96.170.0/24|CL|lacnic|2013-10-24|HVC-AS, US
193.116.195.120|/Satoshi:0.17.1/|70015|7545|193.116.192.0/20|AU|apnic|1994-02-10|TPG-INTERNET-AP TPG Telecom Limited, AU
195.201.110.220|/Satoshi:0.17.1/|70015|24940|195.201.0.0/16|DE|ripencc|1997-09-22|HETZNER-AS, DE
197.185.100.114|/Satoshi:0.17.1/|70015|37105|197.185.100.0/23|ZA|afrinic|2012-12-06|rain, ZA
197.89.222.184|/Satoshi:0.17.1/|70015|10474|197.89.0.0/16|ZA|afrinic|2015-12-09|OPTINET, ZA
198.204.233.154|/Satoshi:0.17.1/|70015|33387|198.204.224.0/19|US|arin|2013-02-13|NOCIX, US
198.23.242.150|/Satoshi:0.17.1/|70015|36352|198.23.240.0/22|US|arin|2012-10-05|AS-COLOCROSSING, US
2.229.115.174|/Satoshi:0.14.0/|70015|12874|2.224.0.0/13|IT|ripencc|2010-12-30|FASTWEB, IT
2.57.169.31|/Satoshi:0.17.1/|70015|7040|2.57.169.0/24|NL|ripencc|2019-03-19|NETMINDERS, CA
2.57.33.49|/Satoshi:0.17.1/|70015|209222|2.57.32.0/22|IT|ripencc|2019-03-15|MELITAITALIA, IT
202.186.163.202|/Satoshi:0.17.1/|70015|9930|202.186.0.0/15|MY|apnic|1996-10-29|TTNET-MY TIME dotCom Berhad No. 14, Jalan Majistret U1/26 Hicom Glenmarie Industrial Park 40150 Shah Alam Selangor, Malaysia, MY
204.111.39.38|/Satoshi:0.17.1/|70015|4922|204.111.0.0/17|US|arin|1995-05-03|SHENTEL, US
204.157.80.22|/Satoshi:0.17.1/|70015|27694|204.157.80.0/20|US|arin|1994-09-21|Flamingo TV Bonaire N.V., BQ
206.189.158.128|/Satoshi:0.17.1/|70015|14061|206.189.144.0/20|US|arin|1995-11-15|DIGITALOCEAN-ASN, US
208.104.145.122|/Satoshi:0.17.1/|70015|14615|208.104.144.0/22|US|arin|2006-03-03|ROCK-HILL-TELEPHONE, US
212.102.46.19|/Satoshi:0.17.1/|70015|60068|212.102.46.0/23|GB|ripencc|1999-06-10|CDN77 (^_^)/, GB
212.133.236.162|/Satoshi:0.17.1/|70015|8386|212.133.236.0/23|TR|ripencc|1999-06-21|KOCNET, TR
212.3.151.106|/Satoshi:0.17.1/|70015|35125|212.3.128.0/19|RU|ripencc|2005-06-07|SMOLENSK-AS, RU
213.146.43.100|/Satoshi:0.17.1/|70015|12741|213.146.32.0/19|PL|ripencc|2000-11-09|AS-NETIA Warszawa 02-822, PL
213.200.153.23|/Satoshi:0.17.1/|70015|39651|213.200.128.0/18|SE|ripencc|2000-03-30|TELE2-FIXED-SWEDEN, SE
213.37.36.31|/Satoshi:0.17.1/|70015|6739|213.37.0.0/16|ES|ripencc|1999-12-10|ONO-AS Cableuropa - ONO, ES
213.47.182.133|/Satoshi:0.17.1/|70015|6830|213.47.128.0/18|AT|ripencc|1999-12-30|LIBERTYGLOBAL Liberty Global (formerly UPC Broadband Holding, aka AORTA), NL
213.86.15.21|/Satoshi:0.17.1/|70015|8220|213.86.0.0/16|GB|ripencc|2000-06-02|COLT COLT Technology Services Group Limited, GB
216.221.102.138|/Satoshi:0.17.1/|70015|14543|216.221.100.0/22|US|arin|1999-05-12|SRT-ASN, US
216.49.45.225|/Satoshi:0.17.1/|70015|3737|216.49.32.0/19|US|arin|2011-07-20|AS-PTD, US
217.103.144.214|/Satoshi:0.17.1/|70015|33915|217.103.128.0/17|NL|ripencc|2000-12-05|TNF-AS, NL
217.120.138.165|/Satoshi:0.17.1/|70015|33915|217.120.0.0/15|NL|ripencc|2000-12-19|TNF-AS, NL
217.160.69.186|/Satoshi:0.11.1/|70015|8560|217.160.0.0/16|DE|ripencc|2001-03-07|IONOS-AS This is the joint network for IONOS, Fasthosts, Arsys, 1&1 Mail and Media and 1&1 Telecom. Formerly known as 1&1 Internet SE., DE
217.173.188.94|/Satoshi:0.17.1/|70015|30923|217.173.176.0/20|PL|ripencc|2004-01-02|TVKTORUN-AS CaTV Torun Network, Poland, PL
217.208.127.61|/Satoshi:0.17.1/|70015|3301|217.208.0.0/13|SE|ripencc|2001-04-02|TELIANET-SWEDEN Telia Company, SE
218.214.223.73|/Satoshi:0.17.1/|70015|9443|218.214.0.0/16|AU|apnic|2003-06-19|VOCUS-RETAIL-AU Vocus Retail, AU
220.255.53.121|/Satoshi:0.17.1/|70015|9506|220.255.32.0/19|SG|apnic|2002-11-25|SINGTEL-FIBRE Singtel Fibre Broadband, SG
221.122.37.74|/Satoshi:0.17.1/|70015|23724|221.122.32.0/20|CN|apnic|2003-07-07|CHINANET-IDC-BJ-AP IDC, China Telecommunications Corporation, CN
23.126.101.183|/Satoshi:0.17.1/|70015|7018|23.112.0.0/12|US|arin|2013-08-09|ATT-INTERNET4, US
24.116.57.62|/Satoshi:0.17.1/|70015|11492|24.116.57.0/24|US|arin|1996-09-25|CABLEONE, US
24.167.111.61|/Satoshi:0.17.1/|70015|11427|24.167.0.0/17|US|arin|2000-06-09|TWC-11427-TEXAS, US
24.205.151.151|/Satoshi:0.17.1/|70015|20115|24.205.148.0/22|US|arin|2001-06-01|CHARTER-20115, US
24.22.152.54|/Satoshi:0.17.1/|70015|7922|24.16.0.0/13|US|arin|2003-12-08|COMCAST-7922, US
24.234.163.156|/Satoshi:0.11.1/|70015|22773|24.234.0.0/16|US|arin|1997-07-22|ASN-CXA-ALL-CCI-22773-RDC, US
24.42.16.238|/Satoshi:0.17.1/|70015|14638|24.42.16.0/21|US|arin|2008-05-02|LCPRL, US
27.102.129.54|/Satoshi:0.17.1/|70015|45996|27.102.129.0/24|KR|apnic|2010-05-27|GNJ-AS-KR DAOU TECHNOLOGY, KR
37.214.71.253|/Satoshi:0.17.1/|70015|6697|37.214.70.0/23|BY|ripencc|2012-03-30|BELPAK-AS BELPAK, BY
37.238.46.46|/Satoshi:0.17.1/|70015|50710|37.238.46.0/24|IQ|ripencc|2012-04-13|EARTHLINK-AS, IQ
37.254.185.39|/Satoshi:0.17.1/|70015|58224|37.254.128.0/18|IR|ripencc|2012-04-19|TCI, IR
37.255.108.6|/Satoshi:0.17.1/|70015|58224|37.255.64.0/18|IR|ripencc|2012-04-19|TCI, IR
45.185.100.125|/Satoshi:0.17.1/|70015|269368|45.185.100.0/22|BR|lacnic|2019-09-23|Providers Servicos em Telecomunicacoes LTDA, BR
46.187.236.16|/Satoshi:0.17.1/|70015|43118|46.187.128.0/17|PL|ripencc|2010-11-22|EAW-AS East and West Network, PL
46.90.228.73|/Satoshi:0.17.1/|70015|3320|46.80.0.0/12|DE|ripencc|2010-06-07|DTAG Internet service provider operations, DE
47.187.73.220|/Satoshi:0.17.1/|70015|5650|47.184.0.0/14|US|arin|2015-08-28|FRONTIER-FRTR, US
47.189.181.114|/Satoshi:0.17.1/|70015|5650|47.189.128.0/18|US|arin|2015-08-28|FRONTIER-FRTR, US
47.20.103.53|/Satoshi:0.17.1/|70015|6128|47.20.0.0/14|US|arin|2012-02-29|CABLE-NET-1, US
47.232.165.187|/Satoshi:0.17.1/|70015|20115|47.232.128.0/17|US|arin|2017-11-27|CHARTER-20115, US
5.188.104.245|/Satoshi:0.17.1/|70015|199860|5.188.104.0/23|RU|ripencc|2012-08-09|SDN-AS, RU
5.196.74.100|/Satoshi:0.17.0/|70015|16276|5.196.0.0/16|FR|ripencc|2012-08-23|OVH, FR
5.206.235.30|/Satoshi:0.17.1/|70015|206262|5.206.235.0/24|AL|ripencc|2012-09-06|TELKOS, AL
5.244.227.196|/Satoshi:0.17.1/|70015|35819|5.244.224.0/20|SA|ripencc|2012-09-11|MOBILY-AS Etihad Etisalat Company (Mobily), SA
60.225.53.40|/Satoshi:0.17.1/|70015|1221|60.224.0.0/13|AU|apnic|2004-07-28|ASN-TELSTRA Telstra Corporation Ltd, AU
62.128.41.122|/Satoshi:0.17.1/|70015|9116|62.128.32.0/20|IL|ripencc|2000-05-15|GOLDENLINES-ASN Partner Communications Main Autonomous System, IL
62.249.185.215|/Satoshi:0.17.1/|70015|2119|62.249.160.0/19|NO|ripencc|2002-05-06|TELENOR-NEXTEL Telenor Norge AS, NO
62.72.114.211|/Satoshi:0.17.1/|70015|8220|62.72.96.0/19|GB|ripencc|2001-10-29|COLT COLT Technology Services Group Limited, GB
62.74.91.22|/Satoshi:0.17.1/|70015|3329|62.74.64.0/19|GR|ripencc|2000-07-24|HOL-GR Athens, Greece, GR
64.129.166.50|/Satoshi:0.17.1/|70015|3549|64.128.0.0/15|US|arin|2004-04-26|LVLT-3549, US
64.33.100.143|/Satoshi:0.17.1/|70015|11232|64.33.64.0/18|US|arin|2016-12-05|MIDCO-NET, US
64.53.220.73|/Satoshi:0.17.1/|70015|12083|64.53.216.0/21|US|arin|2002-05-28|WOW-INTERNET, US
64.98.22.113|/Satoshi:0.17.1/|70015|394497|64.98.16.0/20|CA|arin|2000-05-18|TF-178-ASH, US
65.185.31.130|/Satoshi:0.17.1/|70015|10796|65.185.0.0/19|US|arin|2004-04-07|TWC-10796-MIDWEST, US
65.28.183.29|/Satoshi:0.17.1/|70015|10796|65.28.160.0/19|US|arin|2000-08-22|TWC-10796-MIDWEST, US
65.34.130.4|/Satoshi:0.17.1/|70015|7922|65.34.128.0/17|US|arin|2000-08-22|COMCAST-7922, US
66.165.237.58|/Satoshi:0.17.1/|70015|29802|66.165.236.0/22|US|arin|2017-05-17|HVC-AS, US
66.38.120.20|/Satoshi:0.17.1/|70015|16433|66.38.96.0/19|US|arin|2000-10-24|NCTC-ISP, US
67.149.146.114|/Satoshi:0.17.1/|70015|12083|67.149.144.0/21|US|arin|2004-02-19|WOW-INTERNET, US
67.171.7.126|/Satoshi:0.17.1/|70015|7922|67.160.0.0/11|US|arin|2002-12-16|COMCAST-7922, US
68.131.246.84|/Satoshi:0.17.1/|70015|701|68.131.0.0/16|US|arin|2002-05-13|UUNET, US
68.192.80.131|/Satoshi:0.17.1/|70015|6128|68.192.0.0/14|US|arin|2003-01-29|CABLE-NET-1, US
68.224.237.247|/Satoshi:0.17.1/|70015|22773|68.224.224.0/19|US|arin|2003-03-19|ASN-CXA-ALL-CCI-22773-RDC, US
68.32.226.187|/Satoshi:0.17.1/|70015|7922|68.32.0.0/11|US|arin|2001-11-29|COMCAST-7922, US
68.99.241.33|/Satoshi:0.17.1/|70015|22773|68.99.192.0/18|US|arin|2002-02-04|ASN-CXA-ALL-CCI-22773-RDC, US
69.137.232.84|/Satoshi:0.17.1/|70015|7922|69.136.0.0/13|US|arin|2003-04-24|COMCAST-7922, US
70.121.9.84|/Satoshi:0.17.1/|70015|11427|70.121.0.0/18|US|arin|2004-09-17|TWC-11427-TEXAS, US
70.169.139.109|/Satoshi:0.17.1/|70015|22773|70.169.128.0/19|US|arin|2004-07-21|ASN-CXA-ALL-CCI-22773-RDC, US
70.244.38.189|/Satoshi:0.17.1/|70015|7018|70.244.0.0/14|US|arin|2004-02-25|ATT-INTERNET4, US
70.81.87.184|/Satoshi:0.17.1/|70015|5769|70.81.64.0/18|CA|arin|2004-07-14|VIDEOTRON, CA
71.54.63.122|/Satoshi:0.17.1/|70015|209|71.54.32.0/19|US|arin|2005-04-26|CENTURYLINK-US-LEGACY-QWEST, US
71.87.198.197|/Satoshi:0.17.1/|70015|20115|71.87.192.0/20|US|arin|2005-05-19|CHARTER-20115, US
71.91.14.157|/Satoshi:0.17.1/|70015|20115|71.91.0.0/20|US|arin|2005-05-19|CHARTER-20115, US
72.128.219.105|/Satoshi:0.17.1/|70015|10796|72.128.192.0/19|US|arin|2005-08-02|TWC-10796-MIDWEST, US
72.136.34.34|/Satoshi:0.17.1/|70015|812|72.136.0.0/14|CA|arin|2005-09-20|ROGERS-COMMUNICATIONS, CA
72.183.2.158|/Satoshi:0.17.1/|70015|11427|72.176.0.0/13|US|arin|2005-11-21|TWC-11427-TEXAS, US
72.189.242.245|/Satoshi:0.17.1/|70015|33363|72.188.0.0/15|US|arin|2005-11-21|BHN-33363, US
72.193.105.202|/Satoshi:0.17.1/|70015|22773|72.193.0.0/16|US|arin|2005-08-03|ASN-CXA-ALL-CCI-22773-RDC, US
72.48.153.124|/Satoshi:0.17.1/|70015|7459|72.48.153.0/24|US|arin|2005-05-03|GRANDECOM-AS1, US
73.144.109.50|/Satoshi:0.17.1/|70015|7922|73.0.0.0/8|US|arin|2005-04-19|COMCAST-7922, US
73.166.213.151|/Satoshi:0.17.1/|70015|7922|73.0.0.0/8|US|arin|2005-04-19|COMCAST-7922, US
73.172.70.60|/Satoshi:0.17.1/|70015|7922|73.0.0.0/8|US|arin|2005-04-19|COMCAST-7922, US
73.207.246.210|/Satoshi:0.17.1/|70015|7922|73.0.0.0/8|US|arin|2005-04-19|COMCAST-7922, US
73.215.81.41|/Satoshi:0.17.1/|70015|7922|73.0.0.0/8|US|arin|2005-04-19|COMCAST-7922, US
73.244.153.154|/Satoshi:0.17.1/|70015|7922|73.0.0.0/8|US|arin|2005-04-19|COMCAST-7922, US
73.73.61.112|/Satoshi:0.17.1/|70015|7922|73.0.0.0/8|US|arin|2005-04-19|COMCAST-7922, US
74.197.72.168|/Satoshi:0.11.1/|70015|19108|74.197.0.0/17|US|arin|2006-09-27|SUDDENLINK-COMMUNICATIONS, US
75.154.127.9|/Satoshi:0.17.1/|70015|852|75.154.64.0/18|CA|arin|2006-08-01|TELUS Communications, CA
76.101.171.160|/Satoshi:0.17.1/|70015|7922|76.96.0.0/11|US|arin|2007-01-02|COMCAST-7922, US
76.115.125.158|/Satoshi:0.17.1/|70015|7922|76.96.0.0/11|US|arin|2007-01-02|COMCAST-7922, US
76.176.106.7|/Satoshi:0.17.1/|70015|20001|76.176.0.0/16|US|arin|2006-07-26|TWC-20001-PACWEST, US
76.94.254.186|/Satoshi:0.17.1/|70015|20001|76.94.0.0/15|US|arin|2006-12-22|TWC-20001-PACWEST, US
77.150.62.94|/Satoshi:0.17.1/|70015|15557|77.144.0.0/12|FR|ripencc|2010-08-31|LDCOMNET, FR
77.20.118.85|/Satoshi:0.17.1/|70015|3209|77.20.0.0/14|DE|ripencc|2008-04-08|VODANET International IP-Backbone of Vodafone, DE
77.21.254.119|/Satoshi:0.17.1/|70015|31334|77.21.254.0/23|DE|ripencc|2008-04-08|KABELDEUTSCHLAND-AS, DE
78.1.60.22|/Satoshi:0.17.1/|70015|5391|78.1.0.0/16|HR|ripencc|2007-02-20|T-HT Croatian Telecom Inc., HR
78.118.96.191|/Satoshi:0.14.0/|70015|8228|78.112.0.0/12|FR|ripencc|2007-05-03|CEGETEL-AS, FR
79.76.199.170|/Satoshi:0.17.1/|70015|9105|79.76.0.0/15|GB|ripencc|2007-06-19|TISCALI-UK TalkTalk Communications Limited, GB
79.97.195.187|/Satoshi:0.17.1/|70015|6830|79.97.128.0/17|IE|ripencc|2007-10-17|LIBERTYGLOBAL Liberty Global (formerly UPC Broadband Holding, aka AORTA), NL
80.2.73.241|/Satoshi:0.17.1/|70015|5089|80.2.0.0/16|GB|ripencc|2001-04-25|NTL, GB
81.129.79.19|/Satoshi:0.17.1/|70015|2856|81.128.0.0/12|GB|ripencc|2002-07-25|BT-UK-AS BTnet UK Regional network, GB
81.197.155.207|/Satoshi:0.17.1/|70015|719|81.197.0.0/16|FI|ripencc|2002-09-30|ELISA-AS Helsinki, Finland, FI
82.169.144.180|/Satoshi:0.17.1/|70015|1136|82.169.128.0/19|NL|ripencc|2003-08-29|KPN KPN National, NL
82.170.232.14|/Satoshi:0.17.1/|70015|1136|82.170.0.0/16|NL|ripencc|2003-08-29|KPN KPN National, NL
82.203.166.134|/Satoshi:0.17.1/|70015|16086|82.203.128.0/17|FI|ripencc|2003-10-23|DNA, FI
82.64.131.5|/Satoshi:0.17.1/|70015|12322|82.64.0.0/14|FR|ripencc|2003-04-03|PROXAD, FR
83.142.125.218|/Satoshi:0.15.0.1/|70015|34169|83.142.124.0/23|PL|ripencc|2004-10-26|MEDIA-COM-TYCHY, PL
83.15.146.172|/Satoshi:0.17.1/|70015|5617|83.8.0.0/13|PL|ripencc|2003-12-03|TPNET, PL
84.115.222.187|/Satoshi:0.17.1/|70015|6830|84.114.0.0/15|AT|ripencc|2004-04-07|LIBERTYGLOBAL Liberty Global (formerly UPC Broadband Holding, aka AORTA), NL
84.17.45.157|/Satoshi:0.17.1/|70015|60068|84.17.44.0/23|GB|ripencc|2004-07-23|CDN77 (^_^)/, GB
84.174.137.116|/Satoshi:0.17.1/|70015|3320|84.128.0.0/10|DE|ripencc|2004-03-10|DTAG Internet service provider operations, DE
84.2.34.93|/Satoshi:0.17.1/|70015|15545|84.2.34.0/23|HU|ripencc|2004-09-17|MT-DC-AS EU. Hungary, HU
84.21.242.114|/Satoshi:0.17.1/|70015|33987|84.21.240.0/20|RU|ripencc|2004-09-20|NETWAY-AS, RU
84.24.71.154|/Satoshi:0.17.1/|70015|33915|84.24.0.0/14|NL|ripencc|2004-07-01|TNF-AS, NL
84.248.92.119|/Satoshi:0.17.1/|70015|1759|84.248.0.0/14|FI|ripencc|2004-06-02|TSF-IP-CORE Telia Finland Oyj, FI
84.252.59.14|/Satoshi:0.17.1/|70015|13124|84.252.56.0/22|BG|ripencc|2004-09-08|IBGC, BG
84.65.215.241|/Satoshi:0.17.1/|70015|5378|84.64.0.0/13|GB|ripencc|2004-03-15|Vodafone, GB
84.87.73.13|/Satoshi:0.17.1/|70015|1136|84.80.0.0/13|NL|ripencc|2004-03-17|KPN KPN National, NL
85.29.237.204|/Satoshi:0.17.1/|70015|3249|85.29.192.0/18|EE|ripencc|2005-05-20|ESTPAK, EE
86.101.113.13|/Satoshi:0.17.1/|70015|21334|86.101.0.0/17|HU|ripencc|2005-05-25|ASN-VODAFONE-, HU
86.120.183.4|/Satoshi:0.17.1/|70015|8708|86.120.0.0/13|RO|ripencc|2005-03-16|RCS-RDS 73-75 Dr. Staicovici, RO
86.122.10.132|/Satoshi:0.17.1/|70015|8708|86.120.0.0/13|RO|ripencc|2005-03-16|RCS-RDS 73-75 Dr. Staicovici, RO
86.155.34.214|/Satoshi:0.17.1/|70015|2856|86.128.0.0/11|GB|ripencc|2005-02-07|BT-UK-AS BTnet UK Regional network, GB
86.157.179.18|/Satoshi:0.17.1/|70015|2856|86.128.0.0/11|GB|ripencc|2005-02-07|BT-UK-AS BTnet UK Regional network, GB
86.9.133.250|/Satoshi:0.17.1/|70015|5089|86.9.0.0/16|GB|ripencc|2005-03-29|NTL, GB
86.9.61.108|/Satoshi:0.17.1/|70015|5089|86.9.0.0/16|GB|ripencc|2005-03-29|NTL, GB
87.177.239.62|/Satoshi:0.17.1/|70015|3320|87.128.0.0/10|DE|ripencc|2006-03-30|DTAG Internet service provider operations, DE
88.109.123.87|/Satoshi:0.17.1/|70015|9105|88.108.0.0/15|GB|ripencc|2005-08-05|TISCALI-UK TalkTalk Communications Limited, GB
88.213.132.143|/Satoshi:0.17.1/|70015|35518|88.213.128.0/18|CH|ripencc|2006-01-04|SASAG, CH
88.98.232.21|/Satoshi:0.17.1/|70015|56478|88.98.192.0/18|GB|ripencc|2005-08-03|BCUBE-AS, GB
89.101.242.146|/Satoshi:0.11.1/|70015|6830|89.101.0.0/16|IE|ripencc|2006-02-22|LIBERTYGLOBAL Liberty Global (formerly UPC Broadband Holding, aka AORTA), NL
89.187.140.130|/Satoshi:0.17.1/|70015|35592|89.187.140.0/23|CZ|ripencc|2006-04-28|COOLHOUSING-AS Vinohradska 190, CZ
90.0.82.192|/Satoshi:0.17.1/|70015|3215|90.0.0.0/17|FR|ripencc|2006-03-02|France Telecom - Orange, FR
90.145.218.243|/Satoshi:0.17.1/|70015|29396|90.145.0.0/16|NL|ripencc|2006-11-17|EUROFIBER-UNET EUROFIBER, NL
90.193.241.104|/Satoshi:0.17.1/|70015|5607|90.192.0.0/11|GB|ripencc|2006-05-31|BSKYB-BROADBAND-AS, GB
90.211.134.1|/Satoshi:0.17.1/|70015|5607|90.192.0.0/11|GB|ripencc|2007-06-14|BSKYB-BROADBAND-AS, GB
90.71.45.87|/Satoshi:0.17.1/|70015|12479|90.71.45.0/24|FR|ripencc|2006-03-02|UNI2-AS, ES
91.65.149.132|/Satoshi:0.17.1/|70015|31334|91.65.149.0/24|DE|ripencc|2006-07-10|KABELDEUTSCHLAND-AS, DE
91.90.126.47|/Satoshi:0.17.1/|70015|9009|91.90.126.0/24|RO|ripencc|2007-08-06|M247, GB
92.101.66.10|/Satoshi:0.17.1/|70015|12389|92.101.0.0/17|RU|ripencc|2008-04-04|ROSTELECOM-AS, RU
92.19.45.151|/Satoshi:0.17.1/|70015|13285|92.18.0.0/15|GB|ripencc|2007-06-28|OPALTELECOM-AS TalkTalk Communications Limited, GB
92.233.227.188|/Satoshi:0.17.1/|70015|5089|92.233.0.0/16|GB|ripencc|2007-10-31|NTL, GB
92.234.84.245|/Satoshi:0.17.1/|70015|5089|92.234.0.0/17|GB|ripencc|2007-10-31|NTL, GB
92.6.8.155|/Satoshi:0.17.1/|70015|13285|92.6.0.0/15|GB|ripencc|2007-06-28|OPALTELECOM-AS TalkTalk Communications Limited, GB
93.143.128.231|/Satoshi:0.17.1/|70015|5391|93.143.0.0/16|HR|ripencc|2008-04-23|T-HT Croatian Telecom Inc., HR
93.148.203.77|/Satoshi:0.17.1/|70015|30722|93.148.128.0/17|IT|ripencc|2008-04-11|VODAFONE-IT-ASN, IT
93.32.75.44|/Satoshi:0.17.1/|70015|12874|93.32.0.0/15|IT|ripencc|2008-02-25|FASTWEB, IT
94.175.68.169|/Satoshi:0.17.1/|70015|5089|94.175.0.0/16|GB|ripencc|2008-08-28|NTL, GB
94.25.228.129|/Satoshi:0.17.1/|70015|31213|94.25.228.0/23|RU|ripencc|2008-06-10|MF-NWGSM-AS, RU
95.216.46.155|/Satoshi:0.17.1/|70015|24940|95.216.0.0/16|DE|ripencc|2009-02-24|HETZNER-AS, DE
95.79.35.133|/Satoshi:0.14.0/|70015|42682|95.79.0.0/16|RU|ripencc|2008-12-10|ERTH-NNOV-AS, RU
95.90.239.106|/Satoshi:0.17.1/|70015|31334|95.90.238.0/23|DE|ripencc|2008-12-15|KABELDEUTSCHLAND-AS, DE
96.244.253.35|/Satoshi:0.17.1/|70015|701|96.244.0.0/16|US|arin|2006-12-29|UUNET, US
96.8.253.197|/Satoshi:0.17.1/|70015|16527|96.8.128.0/17|US|arin|2008-07-29|GVTCINTERNET, US
97.101.67.184|/Satoshi:0.17.1/|70015|33363|97.100.0.0/14|US|arin|2007-04-09|BHN-33363, US
98.110.199.107|/Satoshi:0.17.1/|70015|701|98.110.128.0/17|US|arin|2008-04-02|UUNET, US
98.111.117.38|/Satoshi:0.17.1/|70015|701|98.111.96.0/19|US|arin|2008-04-02|UUNET, US
98.115.159.208|/Satoshi:0.17.1/|70015|701|98.115.0.0/16|US|arin|2008-04-02|UUNET, US
98.180.233.135|/Satoshi:0.17.1/|70015|22773|98.180.232.0/21|US|arin|2007-07-20|ASN-CXA-ALL-CCI-22773-RDC, US
98.226.177.46|/Satoshi:0.17.1/|70015|7922|98.192.0.0/10|US|arin|2007-04-20|COMCAST-7922, US
98.3.31.134|/Satoshi:0.17.1/|70015|11351|98.2.0.0/15|US|arin|2007-01-29|TWC-11351-NORTHEAST, US
99.106.96.52|/Satoshi:0.17.1/|70015|7018|99.106.0.0/15|US|arin|2008-02-25|ATT-INTERNET4, US
99.45.13.41|/Satoshi:0.17.1/|70015|7018|99.32.0.0/12|US|arin|2008-02-25|ATT-INTERNET4, US
